    9
 
 O    -0.00001     0.00000     0.00000
 H    -0.41669     0.79887     0.32577
 H     0.92902     0.11076     0.24095
 O     2.84195     0.09647     0.38638
 H     3.20994    -0.47561     1.06390
 C     3.30696    -0.37516    -0.87578
 H     2.87614     0.27594    -1.62890
 H     4.39292    -0.32437    -0.95010
 H     2.97862    -1.39503    -1.07486
