   12
 
 C     0.00000     0.00000     0.00000
 O     1.22907     0.00000     0.00000
 N    -0.77930     1.09305     0.00000
 H    -1.77657     0.98351     0.00000
 H    -0.36692     2.02883     0.00000
 H    -0.56532    -0.94411    -0.00000
 O     0.53777     3.63170     0.00000
 C     1.76684     3.63170     0.00000
 N     2.54614     2.53865     0.00000
 H     3.54340     2.64819     0.00000
 H     2.13375     1.60288     0.00000
 H     2.33216     4.57581    -0.00000
