   15
 
 O    -0.00001     0.00000     0.00000
 H    -0.51945     0.79853     0.10158
 H     0.91691     0.31623     0.01444
 C     2.58971    -1.86069    -0.30638
 H     3.23968    -2.72180    -0.43930
 H     1.90874    -1.78321    -1.15025
 H     1.97670    -1.99948     0.58062
 C     3.34444    -0.56267    -0.17379
 O     2.76773     0.51262    -0.01720
 N     4.69508    -0.66017    -0.23841
 H     5.09603    -1.57071    -0.36792
 C     5.56332     0.49180    -0.12897
 H     4.92683     1.36010     0.00582
 H     6.22891     0.40034     0.72713
 H     6.15779     0.62122    -1.03123
