   30
 
 N     0.00000     0.00000     0.00000
 C     1.34293     0.00000     0.00000
 C     1.99421     1.24872     0.00000
 C     1.17354     2.37630    -0.00296
 N    -0.16566     2.40672    -0.00521
 C    -0.66585     1.17437    -0.00295
 N     3.32815     1.58394     0.00367
 C     3.31082     2.90628     0.00252
 N     2.04906     3.43417    -0.00165
 N     2.01096    -1.16201    -0.00886
 H    -1.74472     1.08334    -0.00325
 H     4.18675     3.53314     0.00465
 H     1.79613     4.40827    -0.00296
 H     1.50749    -2.04243     0.04362
 H     3.01288    -1.13535     0.03812
 O     0.37062    -3.59865     0.12815
 H    -1.00046    -1.51852     0.03718
 C    -1.67149    -4.79664     0.15592
 C    -0.86183    -3.58750     0.11698
 N    -1.56165    -2.39600     0.06565
 C    -2.92843    -2.23087     0.04984
 C    -0.97540    -6.11543     0.21118
 O    -3.48538    -1.14845     0.00625
 H    -4.62467    -3.34283     0.07815
 H    -3.68283    -5.50609     0.16635
 H    -0.32620    -6.24143    -0.65387
 H    -0.34069    -6.17579     1.09387
 H    -1.69303    -6.93295     0.23595
 N    -3.62204    -3.42784     0.08867
 C    -3.01565    -4.65601     0.13969
