   30
 
 C     0.00000     0.00000     0.00000
 C     1.54124     0.00000     0.00000
 C     2.05604     1.45238     0.00000
 C     1.53994     2.18468    -1.25294
 C    -0.00170     2.18310    -1.25680
 C    -0.48517     0.71529    -1.28280
 C    -0.50401     0.72578     1.25929
 H    -0.38352    -1.04616     0.00222
 H     1.92965    -0.54517    -0.87659
 H     1.91863    -0.53692     0.88785
 H     3.16808     1.45197    -0.00195
 C     1.54368     2.17998     1.25732
 H     1.92973     1.70334    -2.16589
 H     1.91656     3.22256    -1.26763
 H    -0.36365     2.72158    -2.15975
 C    -0.51945     2.89674     0.00449
 C    -1.99091     0.60968    -1.41621
 H    -0.02811     0.19947    -2.16481
 H    -1.61096     0.70037     1.29604
 C     0.00338     2.17686     1.26161
 H    -0.16097     0.19481     2.16413
 H     1.92532     3.21472     1.28274
 H     1.92743     1.68645     2.16683
 O    -2.72303     0.04491    -0.63049
 H    -1.62467     2.91096     0.01104
 H    -0.19527     3.95155     0.00518
 H    -0.36788     2.70133     2.16966
 N    -2.55208     1.15372    -2.56361
 H    -2.02921     1.66741    -3.23294
 H    -3.54338     1.11713    -2.69333
