   27
 
 C     0.00000     0.00000     0.00000
 C     1.53969     0.00000     0.00000
 C     2.05691     1.45028     0.00000
 C     1.54143     2.18053    -1.25362
 C     0.00171     2.18157    -1.25517
 C    -0.51446     0.73100    -1.25387
 C    -0.51351     0.71925     1.26026
 H    -0.37183    -1.04918    -0.00219
 H     1.92047    -0.53998    -0.88440
 H     1.92327    -0.54410     0.88071
 H     3.17003     1.44832    -0.00180
 C     1.55157     2.17522     1.26050
 H     1.92261     1.68802    -2.16515
 H     1.92572     3.21518    -1.28002
 H    -0.36905     2.70755    -2.16341
 C    -0.51174     2.90985     0.00001
 H    -1.61809     0.71671    -1.28038
 H    -0.17868     0.20645    -2.16536
 C     0.00578     2.17528     1.25786
 H    -1.61784     0.70462     1.28757
 H    -0.17371     0.19095     2.16908
 H     1.93659     3.21037     1.28831
 H     1.93496     1.67729     2.16916
 H    -1.61603     2.94217     0.00029
 H    -0.17075     3.96071     0.00048
 C    -0.47765     2.86075     2.44739
 N    -0.86204     3.40627     3.39164
