   39
 
 C     0.00000     0.00000     0.00000
 C     1.52831     0.00000     0.00000
 C    -0.56270     1.42099     0.00000
 C    -0.57055    -0.84005    -1.15173
 O    -0.49246    -0.71399     1.13294
 O    -0.06973     0.03710     2.29446
 C    -0.24212    -0.84060     3.37889
 O     0.99354    -1.42467     3.72325
 C     1.41086    -2.47202     2.85440
 C     2.88874    -2.67727     3.19616
 C     3.50440    -3.73193     2.27174
 C     4.98403    -3.93735     2.59598
 C    -0.58561     0.07385     4.59231
 C     0.49966     1.11301     4.83157
 O    -0.75260    -0.75283     5.71786
 H     1.93084    -1.01619    -0.07018
 H     1.91840     0.43500     0.93055
 H     1.93138     0.57995    -0.83523
 H    -0.14672     2.01106     0.82617
 H    -1.65136     1.41147     0.13143
 H    -0.33713     1.94521    -0.93269
 H    -0.22692    -1.87947    -1.09720
 H    -1.66658    -0.85405    -1.12907
 H    -0.25810    -0.43177    -2.11806
 H    -1.00787    -1.61454     3.17738
 H     0.79979    -3.36480     3.07096
 H     1.26999    -2.16849     1.80165
 H     2.99453    -2.97381     4.25646
 H     3.42702    -1.71375     3.10504
 H     2.96012    -4.69051     2.37163
 H     3.39024    -3.42532     1.21434
 H     5.55385    -3.00915     2.47409
 H     5.12465    -4.27570     3.62889
 H     5.43454    -4.68951     1.93934
 H    -1.59274     0.52928     4.46020
 H     0.54035     1.84421     4.01601
 H     1.49326     0.64922     4.90199
 H     0.31999     1.65506     5.76849
 H     0.06278    -1.27898     5.87660
