   38
 
 C     0.00000     0.00000     0.00000
 C     1.52869     0.00000     0.00000
 C     2.07014     1.43246     0.00000
 C     3.60155     1.42446    -0.01620
 O     3.94989     2.80329    -0.00431
 C     5.35475     3.02074    -0.00032
 C     5.47852     4.54927    -0.03173
 O     5.17574     5.04176    -1.32533
 C     6.93871     4.98557     0.20291
 O     7.39997     4.36664     1.38020
 C     7.48629     5.15076     2.56559
 C     8.55310     6.23763     2.39581
 C     6.13066     5.74835     2.94606
 C     7.93099     4.09606     3.59144
 H    -0.40068     0.50689    -0.88532
 H    -0.40095     0.51267     0.88179
 H    -0.39742    -1.02091     0.00324
 H     1.90425    -0.55003    -0.88413
 H     1.90514    -0.55014     0.88350
 H     1.68927     1.99518    -0.87366
 H     1.70887     1.98837     0.88667
 H     4.00490     0.95079    -0.92757
 H     4.02298     0.93075     0.87633
 H     5.81207     2.55465    -0.88858
 H     5.80226     2.59885     0.91725
 H     4.77287     5.02221     0.68476
 H     4.34051     4.63874    -1.64226
 H     7.03031     6.08206     0.21489
 H     7.60467     4.58503    -0.58621
 H     9.46571     5.81532     1.95761
 H     8.21771     7.04581     1.73865
 H     8.82004     6.68533     3.35771
 H     5.35609     4.97192     2.97630
 H     5.80493     6.51352     2.23369
 H     6.16882     6.21648     3.93499
 H     7.19262     3.28916     3.66737
 H     8.87918     3.63479     3.29030
 H     8.06241     4.53659     4.58245
