   14
 
 C     0.00000     0.00000     0.00000
 C     1.52768     0.00000     0.00000
 C     2.06768     1.44021     0.00000
 C     3.58996     1.41043     0.00076
 H     3.98620     0.90451    -0.89391
 H     3.98545     0.90248     0.89462
 I     4.44802     3.40076     0.00356
 H     1.67353     1.98189    -0.88261
 H     1.67397     1.98192     0.88274
 H     1.90629    -0.54943    -0.88302
 H     1.90483    -0.54915     0.88376
 H    -0.40346     0.50827     0.88327
 H    -0.40328     0.50569    -0.88483
 H    -0.39580    -1.02237     0.00145
