   20
 
 C     0.00000     0.00000     0.00000
 C     1.40151     0.00000     0.00000
 C     2.09441     1.20701     0.00000
 C     1.39806     2.41481     0.00016
 C     0.00376     2.41725     0.00026
 C    -0.69791     1.21537     0.00036
 C    -0.70311    -1.21834    -0.00049
 C    -1.30840    -2.27024    -0.00049
 C    -2.01844    -3.51468     0.00037
 C    -1.04452    -4.69997     0.00129
 H     1.94027    -0.94544    -0.00019
 H     3.18272     1.20684    -0.00009
 H     1.94290     3.35628     0.00015
 H    -0.53819     3.36102     0.00049
 H    -1.78610     1.21194     0.00044
 H    -2.69383    -3.58019    -0.88649
 H    -2.69422    -3.57890     0.88702
 H    -1.58089    -5.65443     0.00341
 H    -0.39381    -4.67932     0.88396
 H    -0.39589    -4.68213    -0.88295
