   10
 
 C     0.00000     0.00000     0.00000
 C     1.21039     0.00000     0.00000
 C     2.64572     0.00000    -0.00000
 C     3.19596     1.43157    -0.00000
 H    -1.02566     0.00000     0.00000
 H     3.03636    -0.55599     0.88562
 H     3.03636    -0.55599    -0.88562
 H     4.29118     1.43564    -0.00000
 H     2.85944     1.98727    -0.88353
 H     2.85944     1.98727     0.88353
