   17
 
Cl     0.00000     0.00000     0.00000
 C     1.78555     0.00000     0.00000
 C     2.26781     1.43924     0.00000
 C     3.80174     1.47720    -0.00004
 C     4.30455     2.92720     0.00170
 C     5.83209     2.97120     0.00112
 H     2.09250    -0.55548     0.89981
 H     2.09226    -0.55532    -0.90005
 H     1.87414     1.98639    -0.88120
 H     1.87520     1.98547     0.88255
 H     4.19858     0.93979     0.88186
 H     4.19820     0.94319    -0.88429
 H     3.90932     3.46694    -0.87987
 H     3.91096     3.46436     0.88573
 H     6.24917     2.47280     0.88328
 H     6.24812     2.47830    -0.88464
 H     6.19876     4.00408     0.00404
