   11
 
 C     0.00000     0.00000     0.00000
 C     1.52864     0.00000     0.00000
 C     2.04368     1.42844     0.00000
Cl     3.82836     1.39636     0.00217
 H    -0.40646     0.50546     0.88366
 H    -0.40629     0.50067    -0.88645
 H    -0.39344    -1.02412     0.00259
 H     1.90737    -0.55673     0.88201
 H     1.90770    -0.55553    -0.88258
 H     1.74644     1.99075    -0.89941
 H     1.74305     1.99060     0.89864
