   18
 
 C     0.00000     0.00000     0.00000
 C     1.39564     0.00000     0.00000
 C     2.10424     1.20182     0.00000
 C     1.39026     2.39034    -0.00051
 C     0.00125     2.42745    -0.00137
 C    -0.69049     1.22083    -0.00147
 C    -0.81518    -1.25868     0.00036
 C    -0.00599    -2.55407    -0.00084
Cl     2.25190     3.86991     0.00003
 H     1.94817    -0.93841     0.00025
 H     3.19392     1.19567     0.00038
 H    -0.53832     3.37415    -0.00202
 H    -1.77948     1.22622    -0.00218
 H    -1.49040    -1.25229     0.88531
 H    -1.49135    -1.25189    -0.88393
 H     0.63332    -2.63078    -0.88847
 H     0.63431    -2.63202     0.88598
 H    -0.66714    -3.42919    -0.00101
