   14
 
 H     0.00000     0.00000     0.00000
 C     1.11955     0.00000     0.00000
 C     1.60903     1.45089     0.00000
 C     1.63418    -0.74878     1.22579
 C     1.60871    -0.72669    -1.25951
 H     2.70260     1.51145    -0.00674
 H     1.24477     1.99066    -0.88174
 H     1.25428     1.99961     0.88138
 H     1.41288    -1.82700     1.18902
 H     2.71237    -0.60235     1.39519
Cl     0.81204    -0.12681     2.68353
 H     2.70255    -0.76586    -1.30569
 H     1.23324    -1.75459    -1.30618
 H     1.26467    -0.21457    -2.16610
