   15
 
 C     0.00000     0.00000     0.00000
 C     1.39279     0.00000     0.00000
 C     2.08748     1.21190     0.00000
 C     1.40059     2.42254    -0.00059
 C     0.00542     2.38524    -0.00122
 C    -0.71965     1.19554    -0.00092
 C    -0.77977    -1.28641     0.00047
 H     1.95982    -0.93276     0.00034
 H     3.17856     1.20774     0.00046
 H     1.93750     3.37108    -0.00057
 F    -0.65862     3.53027    -0.00203
 H    -1.81204     1.20520    -0.00135
 F    -1.58819    -1.41559    -1.05219
 F    -1.58053    -1.41961     1.05845
 F    -0.05391    -2.40282    -0.00435
