   24
 
 C     0.00000     0.00000     0.00000
 C     1.52872     0.00000     0.00000
 C     2.07738     1.43310     0.00000
 C     3.61135     1.42572     0.00273
 C     4.16025     2.85797     0.00315
 C     5.69745     2.84398     0.00793
 C     6.23035     4.27355     0.00840
 S     8.07272     4.22891     0.01433
 H    -0.40065     0.50689    -0.88484
 H    -0.40082     0.51068     0.88261
 H    -0.39666    -1.02124     0.00219
 H     1.90602    -0.55017    -0.88263
 H     1.90590    -0.54973     0.88308
 H     1.70107     1.98166    -0.88316
 H     1.69818     1.98259     0.88148
 H     3.98848     0.87466    -0.87917
 H     3.98519     0.87550     0.88666
 H     3.78684     3.40602    -0.88172
 H     3.78165     3.40741     0.88509
 H     6.06459     2.28242    -0.87497
 H     6.05907     2.28349     0.89388
 H     5.87736     4.82181    -0.88314
 H     5.87053     4.82441     0.89554
 H     8.32649     5.54288     0.01509
