   18
 
 C     0.00000     0.00000     0.00000
 C     1.52892     0.00000     0.00000
 C     2.07604     1.43324     0.00000
 C     3.61062     1.43119    -0.00078
 C     4.17355     2.81643     0.00102
 C     5.48459     3.05888     0.00401
 H    -0.40129     0.50706    -0.88449
 H    -0.40145     0.50973     0.88291
 H    -0.39619    -1.02149     0.00154
 H     1.90517    -0.55140    -0.88248
 H     1.90533    -0.55051     0.88302
 H     1.69530     1.98120    -0.88239
 H     1.69716     1.98059     0.88361
 H     3.98442     0.87146    -0.88422
 H     3.98586     0.86859     0.88006
 H     3.44198     3.62330    -0.00052
 H     6.23867     2.28938     0.00562
 H     5.90502     4.05123     0.00511
