   48
 
 C     0.00000     0.00000     0.00000
 C     1.53407     0.00000     0.00000
 C     2.07548     1.43501     0.00000
 C     3.61023     1.43686    -0.00019
 C     4.17051     2.82337     0.00178
 C     5.48128     3.06859     0.00080
 C    -0.54252    -1.43465    -0.00121
 C    -2.07639    -1.43448     0.00052
 C    -2.61935    -2.86904    -0.00166
 C    -4.15323    -2.86865     0.00164
 C    -4.69630    -4.30315    -0.00106
 C    -6.23024    -4.30259     0.00343
 C    -6.77344    -5.73707     0.00073
 C    -8.30722    -5.73676     0.00592
 C    -8.85243    -7.17118     0.00423
 C   -10.38107    -7.17431     0.00933
 H    -0.37899     0.54769     0.88284
 H    -0.37861     0.54840    -0.88267
 H     1.91207    -0.54909     0.88244
 H     1.91169    -0.54827    -0.88322
 H     1.69650     1.98249     0.88332
 H    -0.16275    -1.98446     0.87993
 H    -0.16504    -1.98157    -0.88526
 H    -2.45429    -0.88762     0.88431
 H    -2.45588    -0.88496    -0.88104
 H    -2.23861    -3.41964     0.87854
 H    -2.24270    -3.41493    -0.88667
 H    -4.53008    -2.32234     0.88621
 H    -4.53348    -2.31840    -0.87912
 H    -4.31502    -4.85437     0.87850
 H    -4.32043    -4.84848    -0.88675
 H    -6.60650    -3.75665     0.88846
 H    -6.61127    -3.75214    -0.87685
 H    -6.39160    -6.28833     0.88000
 H    -6.39781    -6.28219    -0.88517
 H    -8.68394    -5.19049     0.89039
 H    -8.68951    -5.18696    -0.87404
 H    -8.47018    -7.72220     0.88405
 H    -8.47645    -7.71731    -0.88146
 H   -10.77982    -6.66702     0.89485
 H   -10.78552    -6.66529    -0.87259
 H   -10.77578    -8.19623     0.00957
 H     1.69675     1.98201    -0.88385
 H     3.98662     0.87566     0.88075
 H     3.98626     0.87869    -0.88324
 H     3.43827     3.62989     0.00411
 H     6.23706     2.30013    -0.00150
 H     5.90011     4.06190     0.00224
