   29
 
 N     0.00000     0.00000     0.00000
 C     1.49321     0.00000     0.00000
 C     1.97002     1.47060     0.00000
 C     1.29035     2.26799    -1.07872
 C    -0.21225     2.19898    -1.07969
 C    -0.70984     0.73600    -1.08810
 C     1.91428    -0.66292     1.32654
 C     2.15438    -0.75892    -1.16359
 C    -2.20356     0.71199    -0.70719
 C    -0.55067     0.14303    -2.49930
 O    -0.46296    -1.31434     0.05136
 O     1.90444     2.93781    -1.86899
 H     3.07165     1.50999    -0.11368
 H     1.75175     1.93722     0.98424
 H    -0.63281     2.74504    -1.94739
 H    -0.59632     2.72443    -0.17939
 H     1.38818    -0.20586     2.17579
 H     1.64572    -1.72665     1.33851
 H     2.98975    -0.57672     1.49805
 H     1.72644    -1.75687    -1.29927
 H     2.07602    -0.21745    -2.11278
 H     3.22647    -0.89960    -0.97320
 H    -2.60732    -0.30670    -0.76351
 H    -2.34846     1.04014     0.33110
 H    -2.79765     1.35517    -1.36039
 H     0.44280     0.33475    -2.92016
 H    -0.72747    -0.93671    -2.51417
 H    -1.27429     0.59108    -3.19236
 H    -0.21698    -1.79628    -0.79188
