   10
 
 C     0.00000     0.00000     0.00000
 H     1.10052     0.00000     0.00000
 H    -0.34379     1.05078     0.00000
 C    -0.56480    -0.75331     1.18110
 I    -0.65015    -0.87744    -1.86263
 H     0.80726    -2.41789     0.81922
 H     0.39959    -2.12371     2.52172
 C     0.00477    -2.10047     1.49237
 H    -0.78481    -2.86989     1.45419
 O    -1.43111    -0.25565     1.85471
