   19
 
 C     0.00000     0.00000     0.00000
 C     1.33843     0.00000     0.00000
 C     2.16440     1.24565     0.00000
 C     1.34500     2.48726     0.38392
 C     0.00856     2.48686    -0.36671
 C    -0.81769     1.25580     0.03331
 C    -0.79084    -1.26745    -0.01818
 H     1.91037    -0.92348    -0.01559
 H     2.60705     1.38520    -1.00898
 H     3.02287     1.13618     0.69217
 H     1.91427     3.40624     0.16075
 H     1.16289     2.49284     1.47489
 H     0.18979     2.48001    -1.45804
 H    -0.55504     3.41187    -0.15265
 H    -1.69827     1.16464    -0.63193
 H    -1.22658     1.39371     1.05591
 H    -1.55475    -1.27710     0.77087
 H    -1.30927    -1.39225    -0.97950
 H    -0.16529    -2.15743     0.12831
