   37
 
 C     0.00000     0.00000     0.00000
 C     1.54796     0.00000     0.00000
 C     2.05910     1.45861     0.00000
 C     1.54382     2.17211    -1.27063
 C    -0.00416     2.16788    -1.26827
 C    -0.51193     0.70364    -1.28244
 H    -0.36786    -1.04843     0.01362
 C    -0.49274     0.73266     1.26129
 C     2.08169    -0.72793    -1.24400
 H     1.91107    -0.51767     0.91488
 H     3.17102     1.45945    -0.00230
 C     1.54883     2.19020     1.25196
 H     1.90419     3.22424    -1.27362
 C     2.07724     1.44618    -2.51589
 H    -0.37500     2.69207    -2.17512
 C    -0.49681     2.90698    -0.01077
 C    -2.04441     0.64719    -1.37346
 C     0.04970    -0.02369    -2.52702
 C     0.00977     2.18757     1.25225
 H    -1.59455     0.70753     1.31559
 H    -0.13135     0.21123     2.16519
 C     1.58531    -0.01146    -2.51164
 H     1.74638    -1.77969    -1.24404
 H     3.18510    -0.75470    -1.22622
 H     1.93049     3.22565     1.27193
 H     1.93328     1.70112     2.16369
 H     1.73852     1.96050    -3.43207
 H     3.18053     1.47820    -2.53272
 H    -0.13847     3.95149    -0.02299
 H    -1.59878     2.96380    -0.00430
 H    -0.32435     0.46082    -3.44575
 H    -0.32110    -1.06319    -2.55334
 H    -0.36480     2.71603     2.15658
 H     1.97243    -0.53756    -3.41250
 H    -2.40405     1.13477    -2.28534
 H    -2.40126    -0.38782    -1.38336
 H    -2.52256     1.14826    -0.52565
