   16
 
 C    -0.00318     0.01081     0.09108
 C     1.54909     0.01832     0.05036
 C     1.96588     1.49322    -0.08519
 N    -0.39159     1.42072    -0.02334
 C    -1.78793     1.81340    -0.02921
 C     0.67283     2.28903    -0.12520
 O     0.55698     3.48859    -0.22838
 H    -0.38523    -0.42152     1.03883
 H    -0.43129    -0.57972    -0.74493
 H     1.92257    -0.58235    -0.79444
 H     1.96831    -0.43415     0.96327
 H     2.59238     1.83355     0.75851
 H     2.55392     1.68269    -1.00086
 H    -2.28767     1.51746     0.90995
 H    -1.86733     2.91632    -0.12623
 H    -2.32561     1.35745    -0.87926
