   25
 
 C     0.03783     0.06634    -0.01398
 C     1.42787     0.13466    -0.03228
 C     2.14770     0.12638     1.16714
 C     1.46260     0.04978     2.38250
 C     0.07127    -0.01985     2.39761
 C    -0.64098    -0.00035     1.20111
 C     3.63634     0.17746     1.13801
 S    -2.40403    -0.08074     1.22439
 O    -2.84634    -0.48264    -0.09656
 O    -2.79879    -0.82720     2.40323
 C    -2.89219     1.60939     1.47556
 C    -3.35535     2.01661     2.65506
 H    -3.47656     1.37490     3.52353
 H    -0.51034     0.05093    -0.96341
 H     1.95650     0.18557    -0.98089
 H     2.01452     0.03608     3.31925
 H    -0.44738    -0.10365     3.35886
 H     4.00679     0.98235     0.48660
 H     4.05435    -0.76633     0.75163
 H     4.08009     0.33872     2.12965
 C    -2.75717     2.50430     0.29811
 H    -3.66518     3.03369     2.85371
 H    -3.30155     2.11193    -0.58155
 H    -1.70877     2.64130    -0.00916
 H    -3.16024     3.50981     0.48671
