   20
 
 O     0.00000     0.00000     0.00000
 C     1.41869     0.00000     0.00000
 C    -0.62535     1.21266     0.00000
 C    -2.10061     0.95443    -0.03697
 C    -2.87268     2.22053     0.35622
 C    -2.29973     3.43814    -0.38020
 C    -0.83689     3.67408     0.03116
 C    -0.03414     2.41412     0.01452
 H     1.80949     0.48751    -0.89843
 H     1.80892     0.47295     0.90641
 H     1.65682    -1.07150    -0.00830
 H    -2.36426     0.11053     0.63322
 H    -2.38792     0.62402    -1.05753
 H    -2.80641     2.37808     1.44978
 H    -3.94610     2.09847     0.12589
 H    -2.90507     4.33663    -0.16778
 H    -2.35905     3.27738    -1.47309
 H    -0.79953     4.11937     1.04790
 H    -0.37988     4.42762    -0.64177
 H     1.03793     2.54849     0.03358
