   21
 
 C     0.00000     0.00000     0.00000
 C     1.37105     0.00000     0.00000
 C     2.09219     1.21912     0.00000
 C     1.41729     2.41128    -0.00069
 C    -0.00508     2.43587    -0.00132
 C    -0.73092     1.22028    -0.00069
 C    -2.15765     1.28614    -0.00092
 C    -2.80292     2.50436    -0.00217
 C    -2.06776     3.71131    -0.00301
 C    -0.69742     3.67736    -0.00238
 C    -2.96453     0.05650     0.00036
 O    -2.62199    -1.09928    -0.00047
 O    -4.29973     0.34314     0.00289
 H    -0.54019    -0.95208     0.00030
 H     1.92418    -0.93906     0.00022
 H     3.18011     1.19011     0.00047
 H     1.95615     3.35718    -0.00082
 H    -3.89695     2.56004    -0.00249
 H    -2.60596     4.65767    -0.00414
 H    -0.11676     4.60050    -0.00299
 H    -4.86558    -0.46840     0.00381
