   28
 
 C     0.00000     0.00000     0.00000
 C     1.53900     0.00000     0.00000
 C     2.02338     1.46157     0.00000
 C     1.49670     2.17542    -1.25857
 C    -0.04290     2.15587    -1.25989
 C    -0.53682     0.69665    -1.26686
 C    -0.53589     0.69707     1.26279
 H     1.93152    -0.53862    -0.88488
 H     1.93367    -0.54012     0.87962
 H     3.13642     1.47919    -0.00002
 C     1.49631     2.17759     1.25714
 H     1.88792     1.68716    -2.16865
 H     1.86453     3.21596    -1.28855
 H    -0.42160     2.67494    -2.16893
 C    -0.56939     2.86965    -0.00136
 N    -0.49740    -1.42859    -0.03272
 H    -0.18712     0.17655    -2.17851
 H    -1.64263     0.66123     1.29183
 C    -0.04328     2.15591     1.25764
 H    -0.19605     0.17484     2.17565
 H     1.86297     3.21856     1.28497
 H     1.88765     1.69205     2.16836
 O    -1.55888    -1.68173     0.50999
 H    -1.67371     2.88361    -0.00099
 H    -0.25084     3.92673    -0.00153
 H    -0.42330     2.67497     2.16609
 O     0.17430    -2.25763    -0.62192
 H    -1.64221     0.66517    -1.29359
