   30
 
 C     0.00000     0.00000     0.00000
 C     1.52901     0.00000     0.00000
 C     2.07632     1.43356     0.00000
 C     3.61008     1.42975     0.00225
 C     4.15614     2.86321    -0.00018
 C     5.69005     2.85766     0.00427
 C     6.23722     4.29105     0.00008
 C     7.76757     4.28023     0.00676
 C     8.31451     5.70994     0.00140
 O     9.72736     5.55037     0.01231
 H    -0.40062     0.50992     0.88305
 H    -0.40044     0.50772    -0.88440
 H    -0.39644    -1.02131     0.00114
 H     1.90651    -0.55047     0.88224
 H     1.90629    -0.54953    -0.88302
 H     1.69786     1.98155    -0.88269
 H     1.69602     1.98240     0.88150
 H     3.98580     0.88134     0.88611
 H     3.98813     0.87858    -0.87903
 H     3.77970     3.40923    -0.88504
 H     3.77537     3.41401     0.87999
 H     6.06436     2.31033     0.88966
 H     6.06920     2.30451    -0.87556
 H     5.86130     4.83428    -0.88737
 H     5.85441     4.84225     0.87976
 H     8.15568     3.73721     0.89038
 H     8.16296     3.72879    -0.86851
 H     8.02393     6.26286    -0.90866
 H     8.01108     6.27502     0.89954
 H    10.16831     6.41940     0.00846
