   12
 
 C     0.00000     0.00000     0.00000
 C     1.53059     0.00000     0.00000
 C     2.05489     1.43387     0.00000
 S     3.89843     1.40160     0.00180
 H     4.14538     2.71627     0.00062
 H     1.69300     1.98121     0.88799
 H     1.69495     1.98034    -0.88926
 H     1.90053    -0.55788     0.88475
 H     1.90074    -0.55785    -0.88456
 H    -0.40390     0.50383    -0.88531
 H    -0.39316    -1.02363     0.00127
 H    -0.40404     0.50622     0.88388
