   28
 
 C     0.00000     0.00000     0.00000
 N     1.47702     0.00000     0.00000
 C     2.05656     1.36178     0.00000
 C     1.79174     1.94780    -1.39976
 C     2.78226     1.64426    -2.45872
 C     3.28327     0.35255    -2.61647
 C     4.20387     0.08900    -3.62782
 C     4.62272     1.11480    -4.47424
 C     4.11334     2.40363    -4.32016
 C     3.18407     2.66883    -3.31681
 C     1.99687    -0.80367     1.12703
 C     1.52332     2.33028     1.05999
 O     0.83791     2.65343    -1.61023
 H    -0.45705     0.33438     0.94256
 H    -0.37474     0.65169    -0.80984
 H    -0.34710    -1.02413    -0.21704
 H     3.16743     1.25269     0.13260
 H     2.94228    -0.44975    -1.95486
 H     4.59384    -0.91804    -3.75698
 H     5.34606     0.90792    -5.26065
 H     4.43562     3.20021    -4.98693
 H     2.76359     3.66894    -3.20180
 H     3.09578    -0.85886     1.06151
 H     1.72500    -0.42305     2.12255
 H     1.61207    -1.83332     1.03303
 H     2.10296     3.26031     1.07461
 H     0.47928     2.61073     0.85902
 H     1.56695     1.89385     2.06235
