   27
 
 C     0.00000     0.00000     0.00000
 C     1.52912     0.00000     0.00000
 C     2.07023     1.43231     0.00000
 C     3.60355     1.42566    -0.00032
 O     3.93993     2.80415     0.00407
 C     5.31894     3.13544    -0.00050
 C     6.01697     2.60086     1.25594
 C     6.00115     2.62432    -1.27548
 C     5.26628     4.67241     0.01349
 H    -0.40014     0.51292     0.88194
 H    -0.39997     0.50744    -0.88515
 H    -0.39727    -1.02066     0.00309
 H     1.90544    -0.55051     0.88314
 H     1.90511    -0.54934    -0.88412
 H     1.70053     1.99355    -0.87901
 H     1.70142     1.99292     0.88009
 H     4.01098     0.93754     0.90036
 H     4.01167     0.94287    -0.90331
 H     5.43023     2.83949     2.15119
 H     6.14754     1.51582     1.22356
 H     7.00811     3.04840     1.37660
 H     6.12700     1.53813    -1.26676
 H     5.40387     2.88091    -2.15881
 H     6.99192     3.07125    -1.39945
 H     4.72645     5.04915    -0.86345
 H     4.72806     5.03328     0.89805
 H     6.26827     5.10621     0.01625
