   17
 
 C     1.39322     0.03629    -0.63328
 C     0.72804    -1.18840    -0.63330
 C    -0.66518    -1.22471    -0.63328
 C    -1.39320    -0.03630    -0.63330
 C    -0.72804     1.18842    -0.63328
 C     0.66517     1.22470    -0.63330
 H     2.47427     0.06445    -0.63172
 H     1.29296    -2.11054    -0.63174
 H    -1.18132    -2.17501    -0.63172
 H    -2.47426    -0.06447    -0.63174
 H    -1.29295     2.11056    -0.63172
 H     1.18130     2.17501    -0.63174
 C     0.00000     0.00000     3.08262
 H     0.58688     0.83817     3.44638
 H    -1.01932     0.08916     3.44638
 H     0.00000     0.00000     1.99667
 H     0.43244    -0.92734     3.44638
