   24
 
 F    -1.91407    -1.17121    -0.11067
 H    -2.18066     1.39894    -0.40938
 C     0.37345    -0.77686     0.21305
 C    -0.90111    -0.29571    -0.03834
 C    -1.17859     1.05108    -0.21532
 C    -0.11122     1.93059    -0.12773
 C     1.18744     1.51732     0.12348
 C     1.39421     0.15658     0.29037
 F    -0.34667     3.24233    -0.28842
 H     2.00041     2.22286     0.18925
 H     0.55954    -1.82833     0.36029
 F     2.63901    -0.27402     0.54129
 H    -1.98273    -2.22971     3.30275
 H    -2.44949     0.19367     3.12349
 C     0.12758    -1.95960     3.61462
 C    -1.17574    -1.51582     3.39597
 C    -1.43843    -0.15060     3.29446
 C    -0.39888     0.77056     3.41226
 C     0.90416     0.32597     3.63027
 C     1.16783    -1.03903     3.73197
 H    -0.60296     1.82987     3.33269
 H     1.71148     1.04028     3.72012
 H     0.33142    -3.01885     3.69621
 H     2.17936    -1.38292     3.89951
