   18
 
 C    -0.00001     0.00000     0.00000
 H     1.03365     0.32845    -0.07553
 H    -0.03319    -1.00255     0.42099
 H    -0.54150     0.65638     0.67671
 C    -0.71473    -0.01382    -1.33224
 O    -1.90022    -0.31204    -1.43496
 N     0.04765     0.31214    -2.40338
 H     1.01049     0.57986    -2.27300
 C    -0.53604     0.33715    -3.72585
 H    -1.04231    -0.60330    -3.93181
 H    -1.27066     1.13571    -3.82260
 H     0.25466     0.48907    -4.45484
 O     2.98637     0.59152    -2.03800
 H     3.70723     1.21882    -1.94758
 C     3.50546    -0.71385    -1.80412
 H     2.67288    -1.40264    -1.90969
 H     4.27160    -0.98284    -2.53100
 H     3.91355    -0.81530    -0.79848
