   28
 
 C    -0.02107     1.53186    -1.36394
 C    -1.27468     0.97410    -1.60741
 C    -1.37831    -0.22570    -2.30842
 C    -0.22894    -0.86641    -2.76879
 C     1.02479    -0.30352    -2.53124
 C     1.12900     0.89668    -1.82998
 H     0.06007     2.45656    -0.80940
 H    -2.16510     1.46545    -1.24057
 H    -2.35097    -0.66161    -2.49267
 H    -0.31034    -1.79558    -3.31727
 H     1.91658    -0.79408    -2.89939
 H     2.10004     1.33268    -1.64004
 H    -2.94177     0.89538     2.22391
 C    -2.02207     0.42585     1.90136
 C    -0.81494     1.07404     2.10670
 H    -0.78515     2.04438     2.58561
 C     0.37043     0.44928     1.68475
 C     1.75086     0.80389     1.71940
 H     2.18701     1.69983     2.12759
 C     2.44514    -0.23107     1.13533
 N     1.56465    -1.21378     0.75554
 C     0.28612    -0.82695     1.06187
 C    -0.92847    -1.48531     0.86069
 H    -0.97292    -2.45548     0.38340
 C    -2.07929    -0.84177     1.28764
 H    -3.03900    -1.32039     1.14684
 H     1.80757    -2.03670     0.23330
 H     3.50288    -0.34853     0.96952
