   35
 
 C    -0.00586     0.04645    -0.03538
 C     1.52821     0.04248    -0.09957
 O     2.00879     1.37939    -0.01008
 C     2.65703     1.74795     1.19712
 C     1.67105     1.93384     2.36488
 O     1.74817     3.29329     2.78329
 C     0.60729     4.10503     2.57787
 C     0.28323     4.30555     1.08549
 O    -1.12574     4.09376     0.98675
 C    -1.58001     3.47062    -0.21309
 C    -2.93702     2.84288     0.15120
 O    -2.79965     1.46777     0.46576
 C    -2.20012     1.18365     1.73554
 C    -1.71015    -0.26890     1.63094
 O    -0.33064    -0.33368     1.30661
 H    -0.44962    -0.69438    -0.72548
 H    -0.41675     1.05709    -0.25614
 H     1.87976    -0.27661    -1.10072
 H     1.96179    -0.61519     0.67828
 H     3.12351     2.71527     0.91089
 H     3.44770     1.01557     1.44090
 H     1.98483     1.37399     3.26541
 H     0.64290     1.62766     2.08136
 H     0.92754     5.04568     3.06634
 H    -0.26503     3.68209     3.11748
 H     0.85697     3.60135     0.44877
 H     0.46769     5.34053     0.74780
 H    -0.86155     2.69403    -0.55979
 H    -1.68242     4.25872    -0.98073
 H    -3.61243     2.80345    -0.72548
 H    -3.42195     3.39043     0.98354
 H    -2.98319     1.30108     2.50632
 H    -1.36104     1.88158     1.94416
 H    -2.30940    -0.84276     0.89580
 H    -1.72814    -0.77432     2.61611
