    9
 
 C    -0.09550    -0.09113    -0.14132
 I     1.83040     0.39698     0.61517
 H    -0.17940    -1.16991    -0.18434
 H    -0.83629     0.32384     0.53085
 H    -0.19126     0.34077    -1.12976
 O     4.92974     0.84094     1.31542
 C     5.50562     0.25042     0.42780
 H     6.60373     0.21058     0.37717
 H     4.95710    -0.27350    -0.36906
