   15
 
 C     0.78061    -0.60989    -1.20754
 C     0.47840     0.75104    -1.20790
 C     0.32766     1.43186     0.00000
 C     0.47840     0.75104     1.20790
 C     0.78061    -0.60989     1.20754
 C     0.93215    -1.28996     0.00000
 H     0.89667    -1.13760    -2.14415
 H     0.35739     1.27821    -2.14405
 H     0.09186     2.48714     0.00000
 H     0.35739     1.27821     2.14405
 H     0.89667    -1.13760     2.14415
 H     1.16901    -2.34517     0.00000
 O    -2.78853    -0.27449     0.00000
 H    -2.62291    -1.21908     0.00000
 H    -1.90151     0.09791     0.00000
