    9
 
 C    -0.08222    -0.06156    -0.10681
 I     1.90123     0.39921     0.53219
 F    -0.25002    -1.37790    -0.21406
 F    -0.97788     0.40069     0.76172
 F    -0.33520     0.48538    -1.29379
 O     4.80925     0.83703     1.16946
 C     5.55654     0.23513     0.42798
 H     6.64808     0.29636     0.53669
 H     5.17706    -0.39898    -0.38652
