   22
 
 C    -0.45374     0.00018     1.05920
 C     0.58399    -0.00003     1.98824
 C     1.91112    -0.00014     1.56395
 C     2.20002    -0.00006     0.20086
 C     1.17185     0.00015    -0.73847
 H    -1.48628     0.00027     1.37724
 H     0.35132    -0.00010     3.04429
 H     2.71283    -0.00029     2.28884
 H     3.22724    -0.00016    -0.13689
 H     1.38327     0.00021    -1.79791
 C    -0.14984     0.00028    -0.29980
Cl    -1.43229     0.00056    -1.46641
 O    -3.69657     0.00015    -3.61862
 C    -4.84399     0.00194    -3.21142
 C    -6.00310    -0.00055    -4.18588
 C    -5.13221     0.00667    -1.72526
 H    -5.91776     0.87330    -4.82939
 H    -5.91885    -0.87870    -4.82365
 H    -6.97322     0.00164    -3.69903
 H    -6.19307     0.00806    -1.49529
 H    -4.66254    -0.86712    -1.27680
 H    -4.66141     0.88257    -1.28216
