    8
 
 C     0.00000     0.00000     0.00000
 C     1.49856     0.00000     0.00000
Cl    -0.59632     1.67347     0.00000
Cl    -0.59847    -0.78819    -1.47463
 H    -0.47542    -0.51632     0.85711
 H     1.91156    -1.02173    -0.03863
 H     1.92834     0.54071    -0.86093
 H     1.91108     0.47564     0.90508
