   20
 
 O     0.09240    -0.07038    -0.04135
 C    -0.14492     0.76438    -0.87563
 C     0.32944     2.17803    -0.89539
 O    -0.91601     0.53321    -1.96425
 C    -1.47179    -0.76685    -2.18265
 O    -0.43808    -1.70877    -2.00781
 C    -0.42668    -2.45304    -0.85004
 O    -1.41751    -2.60092    -0.18978
 C     0.92086    -3.04942    -0.66176
 C    -1.83783    -0.78144    -3.65617
 H     0.04518     2.70946    -1.81701
 H     1.42699     2.21534    -0.80776
 H    -0.08734     2.73671    -0.04166
 H    -2.30573    -0.90996    -1.46379
 H     1.44839    -2.51228     0.14914
 H     1.54845    -2.97425    -1.56307
 H     0.85043    -4.10789    -0.36956
 H    -2.25430    -1.75547    -3.94376
 H    -0.95300    -0.60224    -4.28500
 H    -2.57239    -0.00037    -3.88969
