   13
 
 C     0.00000     0.00000     0.00000
 C     1.52530     0.00000     0.00000
 C     2.10316     1.39997     0.00000
 N     1.79083     2.15828    -1.28636
Cl     3.87290     1.32024     0.08368
Cl     1.53536     2.32978     1.37921
 O     1.78526     1.49560    -2.30514
 O     1.58974     3.35074    -1.21699
 H    -0.41469     0.55408    -0.85326
 H    -0.38879    -1.02559    -0.07670
 H    -0.42532     0.42929     0.91593
 H     1.89632    -0.56490    -0.89112
 H     1.90057    -0.57095     0.88086
