   12
 
 N     0.05061    -0.00800     0.04325
 N     1.49779    -0.04535     0.07226
 C     1.98473     1.36154     0.06017
 H    -0.27324    -0.97424     0.07654
 H    -0.25231     0.42870     0.91348
 C     1.95668    -0.74242    -1.16058
 H     3.05712    -0.72276    -1.18411
 H     1.64317    -1.79717    -1.11576
 H     1.57103    -0.30799    -2.09496
 H     3.08476     1.35015     0.01987
 H     1.60131     1.96543    -0.77588
 H     1.69129     1.85205     1.00197
