   37
 
 C     0.00000     0.00000     0.00000
 C     1.52878     0.00000     0.00000
 C     2.07074     1.43213     0.00000
 C     3.60210     1.42403    -0.07019
 O     3.96255     2.79442    -0.12940
 C     5.19602     3.15398     0.44721
 O     6.24050     3.03012    -0.49079
 C     6.62577     1.71078    -0.83878
 C     8.09645     1.83608    -1.25205
 C     8.63922     0.47798    -1.70619
 C    10.10006     0.59714    -2.14076
 C     5.08643     4.66909     0.67875
 C     5.05256     4.99096     2.16747
 H    -0.40014     0.51004    -0.88395
 H    -0.40077     0.51091     0.88279
 H    -0.39825    -1.02035     0.00018
 H     1.90276    -0.54892    -0.88573
 H     1.90573    -0.55118     0.88226
 H     1.66586     2.00619    -0.85653
 H     1.73844     1.98037     0.90110
 H     3.96644     0.94677    -0.99751
 H     4.04859     0.92458     0.80535
 H     5.41331     2.54772     1.34793
 H     5.98605     1.39424    -1.68253
 H     6.49720     1.01880     0.00922
 H     8.19033     2.58704    -2.06063
 H     8.69135     2.23728    -0.41050
 H     8.02972     0.08515    -2.54272
 H     8.54915    -0.26220    -0.88874
 H    10.21263     1.29851    -2.97573
 H    10.73412     0.95679    -1.32264
 H    10.49854    -0.36969    -2.46660
 H     5.93807     5.17984     0.18220
 H     4.17749     5.05337     0.16978
 H     5.95482     4.63697     2.67977
 H     4.18607     4.53146     2.65824
 H     4.98555     6.07290     2.33480
