   66
 
 C     0.00000     0.00000     0.00000
 C     1.39120     0.00000     0.00000
 C     2.09303     1.20342     0.00000
 C    -0.67715     1.21651    -0.00565
 C     0.03008     2.41590    -0.00663
 C     1.43176     2.43639    -0.00103
 C     2.21400     3.76759     0.02356
 C     2.93675     5.53924     1.75598
 C     4.28218     5.89786     1.90129
 C     4.65913     7.22492     2.09433
 C     1.97844     6.55895     1.83611
 C     2.51040     4.09590     1.56344
 C     2.35084     7.88642     2.02774
 C     3.69512     8.22679     2.15420
 C     1.30118     4.82836    -0.65819
 C     1.93197     6.10343    -1.23563
 C     2.42372     5.93760    -2.68453
 C     3.91977     6.24464    -2.83883
 C     4.81365     5.07510    -2.40114
 C     4.53545     4.64103    -0.95354
 C     3.46923     3.54032    -0.86277
 C     1.20106     3.84786     2.37282
 C     1.23906     4.28538     3.84444
 C     3.59921     3.11102     2.07090
 C     4.08325     3.32553     3.51496
 C     3.62589     2.23681     4.49662
 C     2.12503     1.92827     4.46648
 C     1.22283     3.11162     4.83821
 H    -0.55102    -0.93591     0.00331
 H     1.93557    -0.94207     0.00253
 H     3.18338     1.15838     0.00414
 H    -1.76513     1.23222    -0.00743
 H    -0.54329     3.34183     0.00240
 H     5.06269     5.13895     1.85669
 H     5.71252     7.47582     2.19956
 H     0.91894     6.32281     1.74913
 H     1.58695     8.65906     2.08068
 H     3.98767     9.26243     2.30178
 H     0.76041     4.32975    -1.49238
 H     0.51939     5.13599     0.06478
 H     1.17926     6.91511    -1.20095
 H     2.75126     6.46118    -0.58368
 H     1.84423     6.60813    -3.34629
 H     2.21780     4.91543    -3.05237
 H     4.17926     7.15242    -2.26220
 H     4.13816     6.49201    -3.89515
 H     5.87396     5.37752    -2.49661
 H     4.68594     4.22251    -3.09238
 H     4.24083     5.53105    -0.36892
 H     5.47409     4.28414    -0.49070
 H     3.99113     2.61413    -0.54767
 H     3.09043     3.31595    -1.88338
 H     0.94833     2.76892     2.32979
 H     0.35683     4.35588     1.87093
 H     0.36972     4.93779     4.05585
 H     2.12167     4.92492     4.03975
 H     4.47593     3.16096     1.39752
 H     3.21376     2.07745     1.97627
 H     5.19034     3.36162     3.52649
 H     3.76245     4.31639     3.89144
 H     3.91699     2.53838     5.52167
 H     4.18288     1.30243     4.28652
 H     1.92047     1.09358     5.16687
 H     1.84444     1.54047     3.46689
 H     1.50508     3.48762     5.84010
 H     0.18301     2.74058     4.93487
