   21
 
 C     0.00000     0.00000     0.00000
 O     1.41454     0.00000     0.00000
 C     2.01231     1.28066     0.00000
 O     1.40118     2.00311     1.05539
 C     1.76094     3.37193     1.08967
 N     3.43415     1.09465     0.27777
 C     4.09667     0.32307    -0.79576
 C     3.67938     0.49188     1.60356
 H    -0.38874     0.54258    -0.86637
 H    -0.38464     0.42728     0.93300
 H    -0.24670    -1.06734    -0.06429
 H     1.83852     1.78921    -0.97502
 H     1.38295     3.88961     0.20285
 H     2.84776     3.49021     1.17729
 H     1.25933     3.73503     1.99524
 H     3.94464     0.83081    -1.76174
 H     3.73531    -0.71385    -0.88715
 H     5.18174     0.30106    -0.59960
 H     3.13725     1.06990     2.37332
 H     3.35182    -0.55668     1.68118
 H     4.75598     0.55189     1.82818
