   27
 
 C    -0.03913    -0.00850     0.05725
 C     1.48069     0.07040     0.19957
 C     1.99131     1.48527    -0.10502
 C     3.51766     1.54916     0.03541
 C     4.02978     2.97003    -0.23157
 C     5.55784     3.01129    -0.11482
 C     6.08511     4.44289    -0.35373
 N     7.53594     4.33481    -0.70196
 N     5.67727     5.31403     0.79087
 F     8.24562     4.01220     0.43002
 F     8.02886     5.60060    -0.92135
 F     6.19770     6.57127     0.58209
 F     6.39693     4.96135     1.90750
 H    -0.40564    -1.01688     0.28107
 H    -0.36180     0.23939    -0.96000
 H    -0.54357     0.68323     0.74125
 H     1.96018    -0.66001    -0.47916
 H     1.77853    -0.22655     1.22333
 H     1.51429     2.21319     0.57804
 H     1.68773     1.78441    -1.12510
 H     3.98926     0.83435    -0.66476
 H     3.81507     1.22340     1.05077
 H     3.57115     3.67796     0.48906
 H     3.70692     3.30614    -1.23463
 H     6.01434     2.32742    -0.86296
 H     5.87339     2.61865     0.87140
 H     5.57049     4.87210    -1.27282
