   30
 
 C     0.00221     0.10004    -0.02236
 C     1.26612    -0.11487    -0.57675
 C     2.18468     0.93019    -0.64172
 C     1.84462     2.19163    -0.15482
 C     0.58546     2.40470     0.40350
 C    -0.33496     1.36128     0.47196
 C    -0.98354    -1.02178     0.04661
 C    -0.68626    -1.90715     1.26042
 O    -1.29456    -1.22949     2.36002
 O    -1.39210    -3.10902     1.05622
 C    -0.79755    -4.28453     1.46172
 C    -1.83681    -5.33557     1.60487
 O     0.39174    -4.37071     1.59024
 C    -1.53453    -1.90006     3.51261
 O    -1.27745    -3.06603     3.66566
 C    -2.14143    -0.97180     4.50885
 H     1.53569    -1.09907    -0.95619
 H     3.16942     0.75997    -1.07302
 H     2.56067     3.00818    -0.20893
 H     0.31999     3.38697     0.78827
 H    -1.31408     1.52741     0.91672
 H    -2.02913    -0.64825     0.10483
 H    -0.95601    -1.64459    -0.87417
 H     0.38594    -2.07093     1.49828
 H    -2.10362    -5.43662     2.67474
 H    -2.76256    -5.09562     1.06087
 H    -1.46982    -6.31301     1.25867
 H    -3.07500    -1.39446     4.91213
 H    -1.45556    -0.82046     5.35889
 H    -2.37009     0.01785     4.08368
