   34
 
 O     0.00000     0.00000     0.00000
 C     1.42143     0.00000     0.00000
 C     1.80762     1.48147     0.00000
 C     3.32955     1.63926     0.00237
 C     3.71610     3.12412     0.00236
 C     5.24122     3.28695     0.00686
 C     5.62749     4.77144     0.00664
 C     7.15265     4.93412     0.01320
 C     7.53954     6.41885     0.01256
 C     9.06182     6.57589     0.02130
 C     9.44901     8.05671     0.01979
 O    10.87112     8.05247     0.03227
 H    -0.34028    -0.91307     0.00000
 H     1.78027    -0.52207    -0.90395
 H     1.78020    -0.52284     0.90358
 H     1.35761     1.98080    -0.87999
 H     1.35530     1.98117     0.87876
 H     3.76749     1.13557    -0.88007
 H     3.76455     1.13694     0.88714
 H     3.28265     3.62814    -0.88171
 H     3.27773     3.62938     0.88342
 H     5.67915     2.78095    -0.87363
 H     5.67360     2.78326     0.89153
 H     5.19531     5.27459    -0.87827
 H     5.18800     5.27675     0.88683
 H     7.59179     4.42708    -0.86636
 H     7.58372     4.43054     0.89883
 H     7.10771     6.91961    -0.87444
 H     7.09764     6.92301     0.89275
 H     9.51675     6.07240    -0.85374
 H     9.50597     6.07790     0.90521
 H     9.10061     8.57641    -0.88948
 H     9.08469     8.58305     0.91872
 H    11.21448     8.96433     0.03134
