   14
 
 C     0.00000     0.00000     0.00000
 C     1.33795     0.00000     0.00000
 C     1.55341     2.34838     0.00000
 C     1.54957    -2.34856    -0.01316
 O     2.17986     1.07304     0.09491
 O     2.17894    -1.07409    -0.09213
 H    -0.60446    -0.87990    -0.08372
 H    -0.60436     0.88046     0.07908
 H     1.02331     2.45935    -0.95105
 H     0.88724     2.51829     0.85200
 H     2.42024     3.02377     0.04349
 H     1.00620    -2.46442     0.92983
 H     0.89481    -2.51196    -0.87519
 H     2.41555    -3.02538    -0.04887
