   48
 
 C     0.00000     0.00000     0.00000
 C     1.55392     0.00000     0.00000
 C     2.04113     1.42857     0.00000
 C     2.15561    -0.74414    -1.16428
 C    -0.48833     0.63756     1.27799
 C    -0.60476    -1.37297    -0.14334
 C     1.97030     2.21034    -1.15424
 C     2.54362     1.97970     1.18081
 C     3.41774    -1.32225    -0.99532
 C     1.50452    -0.86346    -2.39263
 C    -1.00803     1.93312     1.24173
 C    -0.40292    -0.04132     2.49466
 C     0.05087    -2.52849     0.28266
 C    -1.87690    -1.47463    -0.71524
 C     2.39291     3.53677    -1.12530
 C     2.96330     3.30746     1.20743
 C     4.01647    -2.01635    -2.04263
 C     2.10467    -1.56142    -3.43871
 C    -1.43057     2.54821     2.41778
 C    -0.82788     0.57537     3.66839
 C    -0.55460    -3.77412     0.12978
 C    -2.48113    -2.71950    -0.86354
 C     2.88723     4.08809     0.05554
 C     3.35996    -2.13958    -3.26613
 C    -1.33947     1.87149     3.63253
 C    -1.81993    -3.87278    -0.44363
 H    -0.33347     0.62531    -0.87310
 H     1.88790    -0.50117     0.94965
 H     1.59324     1.78106    -2.08112
 H     2.59621     1.37867     2.08652
 H     3.93851    -1.22420    -0.04491
 H     0.51843    -0.42735    -2.54039
 H    -1.07234     2.47119     0.29800
 H    -0.01322    -1.05761     2.52530
 H     1.04419    -2.47009     0.72347
 H    -2.40112    -0.57785    -1.03930
 H     2.33784     4.14274    -2.02696
 H     3.34752     3.73567     2.13067
 H     4.99861    -2.46362    -1.90581
 H     1.58760    -1.65675    -4.39116
 H    -1.82885     3.55997     2.38694
 H    -0.76102     0.04338     4.61482
 H    -0.03385    -4.67157     0.45706
 H    -3.47130    -2.79250    -1.30805
 H     3.21375     5.12470     0.07789
 H     3.82605    -2.68541    -4.08234
 H    -1.66830     2.35322     4.54986
 H    -2.29029    -4.84525    -0.56363
