    8
 
 C     0.00000     0.00000     0.00000
 C     1.50768     0.00000     0.00000
Cl    -0.58033     1.66941     0.00000
Cl    -0.58300    -0.77398    -1.47695
Cl     2.09068    -1.66795    -0.00768
Cl     2.08783     0.76781     1.48215
 H    -0.47203    -0.52050     0.86463
 H     1.97934     0.52615    -0.86135
