   33
 
 C     0.00000     0.00000     0.00000
 C     1.54659     0.00000     0.00000
 C     2.20982     1.38307     0.00000
 C     2.40780     1.95761    -1.41449
 C     1.65889     3.27870    -1.63355
 C     0.19521     3.07787    -2.07156
 C    -0.63140     2.33264    -1.00567
 C    -0.59091     0.80537    -1.17983
 C    -0.44773    -1.47182    -0.18521
 C    -0.54172     0.48582     1.35229
 C    -0.43418     4.45349    -2.34441
 H     1.90913    -0.57987    -0.87031
 H     1.89294    -0.56195     0.89003
 H     3.19340     1.30963     0.50258
 H     1.62247     2.08167     0.62383
 H     3.48812     2.11888    -1.59204
 H     2.09561     1.22248    -2.17875
 H     2.18507     3.86830    -2.40976
 H     1.69756     3.89690    -0.71844
 H     0.18452     2.49179    -3.02070
 H    -1.68514     2.66768    -1.05184
 H    -0.28432     2.62925    -0.00006
 H    -1.62343     0.45040    -1.36747
 H    -0.02683     0.54217    -2.09490
 H    -1.53544    -1.56608    -0.11325
 H    -0.14388    -1.86225    -1.16057
 H    -0.01232    -2.11902     0.58167
 H    -0.13757     1.46654     1.62493
 H    -1.63266     0.57488     1.33158
 H    -0.27695    -0.20615     2.15830
 H    -0.47099     5.06397    -1.43649
 H    -1.45790     4.35344    -2.71989
 H     0.13577     5.01022    -3.09523
