    8
 
 C     0.00000     0.00000     0.00000
 C     1.49228     0.00000     0.00000
Cl     2.12517     1.65074     0.00000
Cl     2.12517    -0.82537     1.42959
Cl     2.12517    -0.82537    -1.42959
 H    -0.42313     0.51073    -0.88461
 H    -0.42313    -1.02146    -0.00000
 H    -0.42313     0.51073     0.88461
