   48
 
 C     0.00000     0.00000     0.00000
 C     1.53751     0.00000     0.00000
 C     2.01651     1.47834     0.00000
 C    -0.44933     1.41956     0.37889
 C     0.82587     2.23034     0.65641
 C     3.26220     1.62191     0.85546
 C     2.30604     2.00260    -1.44790
 C     5.35332     0.72599     1.70308
 C     5.57254     1.89101     2.43384
 C     4.20781     0.59300     0.92213
 C     4.63750     2.92162     2.37653
 C     3.49361     2.78778     1.59396
 C     2.86060     3.45673    -1.46008
 C     3.51351     3.61730    -2.84427
 C     3.95123     2.19950    -3.26607
 C     3.48511     1.25830    -2.13948
 C     1.05770     1.90904    -2.30862
 C     0.76937     0.74658    -3.03273
 C    -0.36466     0.66307    -3.83626
 C     0.16913     2.98547    -2.41225
 C    -0.96610     2.90526    -3.21467
 C    -1.23788     1.74325    -3.93172
 H    -0.39499    -0.28018    -0.99185
 H    -0.39247    -0.74702     0.70791
 H     1.89814    -0.51391     0.91037
 H     1.94169    -0.55925    -0.85532
 H    -1.03323     1.87290    -0.44149
 H    -1.11226     1.41157     1.25805
 H     0.73905     3.26150     0.28636
 H     0.97882     2.29806     1.74981
 H     6.07800    -0.08483     1.74162
 H     6.46583     1.99503     3.04373
 H     4.05962    -0.32716     0.35851
 H     4.80035     3.83549     2.94443
 H     2.78058     3.61036     1.56003
 H     3.62736     3.58358    -0.67538
 H     2.09634     4.21829    -1.26432
 H     2.79459     4.03437    -3.56891
 H     4.36434     4.31331    -2.80773
 H     3.49002     1.91890    -4.22699
 H     5.04032     2.13776    -3.40938
 H     4.31136     1.10063    -1.42464
 H     3.21383     0.26438    -2.51570
 H     1.43295    -0.11497    -2.97466
 H    -0.56673    -0.25044    -4.39142
 H     0.35430     3.90603    -1.86074
 H    -1.64144     3.75569    -3.28082
 H    -2.12206     1.68002    -4.55977
