   40
 
 C     0.00000     0.00000     0.00000
 C     1.39880     0.00000     0.00000
 C     2.11320     1.19558     0.00000
 C     1.44018     2.41472     0.00278
 C     0.04760     2.42739     0.00562
 C    -0.66482     1.23072     0.00427
 C    -0.77774    -1.30439     0.00832
 C     0.00176    -2.39321    -0.75639
 C    -2.10802    -1.13473    -0.75299
 C    -1.03647    -1.74221     1.50172
 C     0.29405    -1.90971     2.26338
 C    -1.81751    -0.65458     2.26657
 C    -1.81274    -3.04737     1.51022
 C    -1.14707    -4.27767     1.50660
 C    -1.85811    -5.47508     1.50493
 C    -3.25064    -5.46393     1.50493
 C    -3.92484    -4.24547     1.50618
 C    -3.21162    -3.04914     1.50857
 H     1.94848    -0.93950     0.00133
 H     3.20103     1.17519    -0.00207
 H     1.99686     3.34811     0.00235
 H    -0.48744     3.37476     0.00781
 H    -1.75270     1.26792     0.00825
 H    -0.60425    -3.29967    -0.87897
 H     0.92220    -2.69232    -0.24787
 H     0.27293    -2.04270    -1.75903
 H    -2.61724    -2.09870    -0.87709
 H    -2.80787    -0.46889    -0.24098
 H    -1.93098    -0.72669    -1.75489
 H     0.80261    -0.94515     2.38597
 H     0.99433    -2.57573     1.75228
 H     0.11730    -2.31663     3.26574
 H    -1.21222     0.25218     2.39083
 H    -2.73743    -0.35563     1.75703
 H    -2.08996    -1.00636     3.26837
 H    -0.05916    -4.31397     1.50355
 H    -1.32221    -6.42200     1.50368
 H    -3.80622    -6.39791     1.50421
 H    -5.01268    -4.22605     1.50622
 H    -3.76253    -2.11033     1.50733
