   16
 
 O     0.00000     0.00000     0.00000
 O     3.53477     0.00000     0.00000
 C     4.57738     0.95561     0.00000
 C     2.24546     0.60080    -0.00317
 C     1.28915    -0.60117    -0.00283
 C    -1.04260    -0.95550     0.00482
 H     4.54244     1.57852     0.89920
 H     4.54734     1.57271    -0.90332
 H     5.48173     0.33331     0.00426
 H     2.11326     1.22653     0.89583
 H     2.11591     1.22236    -0.90544
 H     1.41781    -1.22404    -0.90423
 H     1.42197    -1.22570     0.89693
 H    -1.00503    -1.57713     0.90477
 H    -1.01504    -1.57412    -0.89754
 H    -1.94713    -0.33348     0.01068
