   14
 
 I     0.00000     0.00000     0.00000
 C     2.16385     0.00000     0.00000
 C     2.73692     1.41450     0.00000
 C     4.26943     1.34159    -0.00921
 C     4.82783     0.85155     1.31650
 H     4.50841     1.47050     2.16628
 H     2.46904    -0.56675     0.89413
 H     2.47396    -0.56442    -0.89398
 H     2.38592     1.98767     0.88342
 H     2.36202     1.97470    -0.88347
 H     4.62606     0.70283    -0.84572
 I     5.09951     3.32011    -0.47333
 H     4.49367    -0.17451     1.52700
 H     5.92655     0.82574     1.33150
