   22
 
 H     0.00000     0.00000     0.00000
 C     1.09757     0.00000     0.00000
 C     1.64566     1.42284     0.00000
 O     1.12476     1.98989    -1.19812
 C     1.52620     3.33755    -1.38860
 C     1.00029     3.67624    -2.79349
 O     1.43324     5.01385    -2.99178
 C     0.95280     5.57419    -4.20884
 C     1.55447     6.97479    -4.23643
 H     1.41319    -0.54179    -0.90118
 H     1.44058    -0.56020     0.87465
 H     1.28862     2.00562     0.86710
 H     2.74896     1.44280    -0.03322
 H     1.06610     3.97913    -0.61781
 H     2.62444     3.43297    -1.33955
 H     1.44275     3.01839    -3.56088
 H    -0.09962     3.61055    -2.83899
 H     1.29630     4.95959    -5.05954
 H    -0.15123     5.59721    -4.19113
 H     1.22013     7.56324    -3.37227
 H     2.65030     6.93168    -4.18612
 H     1.27375     7.51218    -5.14683
