   15
 
 N     0.03407    -0.03751     0.02701
 C     1.49656     0.12771     0.15572
 C     1.94983     1.59519     0.16388
 C     1.94040    -0.57316     1.47200
 N     1.55764    -1.99565     1.52617
 H    -0.46506     0.39822     0.78562
 H    -0.31442     0.33019    -0.84291
 H     1.96583    -0.39855    -0.71570
 H     1.51649     2.15323     1.00030
 H     3.04023     1.67161     0.24891
 H     1.66022     2.10872    -0.75900
 H     3.04129    -0.49329     1.58906
 H     1.48923    -0.06538     2.35158
 H     0.55830    -2.09617     1.39470
 H     2.01318    -2.52455     0.79857
