   14
 
 O     0.00000     0.00000     0.00000
 C     1.35779     0.00000     0.00000
 C     2.12348     1.15852     0.00000
 C     3.51888     1.05693    -0.00032
 C     4.13545    -0.18713    -0.00068
 C     3.37083    -1.35882    -0.00069
 C     1.98511    -1.26696    -0.00023
 H     5.22126    -0.25877    -0.00092
 H    -0.35762     0.92351    -0.00004
 H     1.64859     2.13501     0.00028
 H     4.11923     1.96458    -0.00026
 H     3.86003    -2.32827    -0.00112
 O     1.16331    -2.34776    -0.00019
 H     1.68198    -3.19144    -0.00077
