   21
 
 C     0.00000     0.00000     0.00000
 C     1.54321     0.00000     0.00000
 C     1.96634     1.48083     0.00000
 C     0.70388     2.31037    -0.30785
 C    -0.39831     1.31045    -0.72895
 C    -0.57831    -1.27036    -0.61319
 H    -0.35660     0.07908     1.05496
 H     1.93224    -0.51524    -0.89365
 H     1.94495    -0.54180     0.86818
 H     2.75093     1.66350    -0.75121
 H     2.39705     1.77017     0.97153
 H     0.89454     3.05746    -1.09246
 H     0.38603     2.87583     0.58331
 H    -1.39177     1.65134    -0.36765
 C    -0.44650     1.17391    -2.25126
 H    -0.21503    -1.43448    -1.63382
 H    -1.67235    -1.22682    -0.65615
 H    -0.30382    -2.15204    -0.02295
 H     0.50088     0.78614    -2.64294
 H    -1.24360     0.49359    -2.56880
 H    -0.63287     2.14120    -2.73012
