    8
 
 C     0.00000     0.00000     0.00000
 C     1.56275     0.00000     0.00000
 F     2.06039     1.23277     0.00000
 F     2.03076    -0.54872     1.11667
Cl     2.22824    -0.86530    -1.37494
 F    -0.49709    -0.66765    -1.03653
 F    -0.46753    -0.64166     1.06603
Cl    -0.66610     1.62340    -0.01845
