   21
 
 C    -0.00925    -0.00719    -0.00868
 C     1.53106     0.01831     0.08493
 C     1.94035     1.50194     0.15203
 C     0.68109     2.33518    -0.15351
 C    -0.38631     1.34449    -0.66211
 C    -0.51353    -1.20161    -0.81362
 H    -0.43649    -0.04931     1.01843
 H     1.98537    -0.46852    -0.79367
 H     1.88383    -0.54134     0.96350
 H     2.74206     1.71890    -0.57144
 H     2.34532     1.75516     1.14487
 H     0.88367     3.11880    -0.89808
 H     0.33179     2.85455     0.75397
 C    -1.80141     1.78960    -0.30264
 H    -0.30205     1.25245    -1.76880
 H    -0.15123    -1.17624    -1.84754
 H    -1.60863    -1.21856    -0.85120
 H    -0.18105    -2.14660    -0.37090
 H    -2.54722     1.08655    -0.69117
 H    -1.94560     1.85334     0.78168
 H    -2.02422     2.77617    -0.72408
