    8
 
 C     0.00000     0.00000     0.00000
 H     1.10369     0.00000     0.00000
 H    -0.34455     1.04851     0.00000
 C    -0.58583    -0.80656     1.13454
 I    -0.58848    -0.81747    -1.92444
 H    -1.68916    -0.80947     1.13089
 H    -0.23836    -1.85404     1.13634
 I     0.00152     0.01478     3.05892
