   10
 
 C     0.00000     0.00000     0.00000
 C     1.51548     0.00000     0.00000
 S     2.08991     1.75611     0.00000
 S    -0.57405    -1.75622     0.00193
 H    -0.41185     0.51500     0.89029
 H    -0.41174     0.51357    -0.89112
 H     1.92724    -0.51395     0.89095
 H     1.92712    -0.51488    -0.89041
 H     3.41330     1.55163    -0.00015
 H    -1.89752    -1.55219     0.00161
