   22
 
 C    -0.00971    -0.02828    -0.00614
 C     1.29523    -0.04841    -0.00398
 C     2.60013    -0.06737     0.00010
 C     3.41615     0.84589     0.86285
 C     3.66979     2.18957     0.14745
 C     2.56370     3.16045     0.42783
 C     1.42509     3.13290    -0.20942
 C     0.28552     3.10448    -0.84483
 C    -0.88038     2.29162    -0.37128
 C    -0.80201     0.85260    -0.92312
 H    -0.59057    -0.64932     0.67551
 H     3.16429    -0.74419    -0.64186
 H     4.38301     0.36700     1.11504
 H     2.91165     1.02766     1.83384
 H     3.77515     2.02002    -0.94374
 H     4.63968     2.61085     0.47779
 H     2.76063     3.89166     1.21184
 H     0.13123     3.66333    -1.76778
 H    -1.82931     2.76520    -0.69289
 H    -0.92088     2.26651     0.73682
 H    -1.82472     0.44652    -1.05230
 H    -0.35589     0.86354    -1.93864
