   24
 
 C     0.00000     0.00000     0.00000
 C     1.39163     0.00000     0.00000
 C     2.12068     1.19490     0.00000
 C     1.43652     2.41293    -0.00007
 C     0.03677     2.41195    -0.00049
 C    -0.68707     1.22343    -0.00075
 C    -2.17867     1.26200    -0.00239
 C    -0.74307    -1.29388     0.00049
 H     1.92805    -0.94720     0.00027
 C     3.61026     1.09040    -0.00071
 C     2.12243     3.73938     0.00018
 H    -0.49280     3.36293    -0.00092
 H    -2.58842     0.76091    -0.89169
 H    -2.59108     0.75220     0.88073
 H    -2.57526     2.28560     0.00213
 H    -1.38911    -1.38147     0.88640
 H    -1.38796    -1.38253    -0.88616
 H    -0.07529    -2.16519     0.00147
 H     3.96762     0.55328    -0.89153
 H     3.96773     0.54009     0.88208
 H     4.11541     2.06486     0.00737
 H     1.84263     4.32830     0.88595
 H     1.84597     4.32634    -0.88803
 H     3.21742     3.66345     0.00169
