   26
 
 C     0.00116    -0.00528     0.01689
 C     1.35632    -0.01015    -0.00545
 C     1.87201     1.42255    -0.00479
 C     0.58151     2.23120    -0.00045
 C    -0.48087     1.38991     0.02044
 C    -1.91879     1.72680     0.04780
 C    -0.92134    -1.15930     0.03877
 C     2.28519    -1.15485    -0.02165
 C     2.74004     1.72385    -1.22179
 C     0.60519     3.70511    -0.00993
 H     2.43984     1.61790     0.93491
 H    -2.41296     1.28046     0.92453
 H    -2.43347     1.34442    -0.84683
 H    -2.09733     2.81003     0.08819
 H    -1.58030    -1.15827    -0.84286
 H    -1.56837    -1.13259     0.92888
 H    -0.39254    -2.12182     0.04843
 H     2.80459    -1.22833    -0.99053
 H     3.05822    -1.06226     0.75542
 H     1.77291    -2.11332     0.14309
 H     2.19082     1.53188    -2.15251
 H     3.05787     2.77246    -1.23348
 H     3.63974     1.09860    -1.23188
 H     1.28660     4.10621     0.75503
 H     0.94787     4.08855    -0.98453
 H    -0.38579     4.14204     0.17804
