   32
 
 C     0.00000     0.00000     0.00000
 C     1.53146     0.00000     0.00000
 H    -0.37981     1.03914     0.00000
 H    -0.38643    -0.46998    -0.92174
 C     0.37466    -0.54443     7.42649
 C    -0.54592    -0.62267     6.20250
 C     0.16158    -0.27548     4.92759
 C     1.37869     0.41309     4.91656
 C     2.08732     0.79449     6.18092
 C     1.15862     0.77064     7.40121
 C     1.97287     0.73692     3.69620
 C     1.37485     0.38242     2.48637
 C     0.15939    -0.30925     2.49709
 C    -0.43577    -0.63102     3.71746
 H    -0.21821    -0.62511     8.35490
 H     1.92038     0.43884    -0.93585
 H     1.91062    -1.03896     0.03493
 H     1.07237    -1.40308     7.43091
 H    -0.98926    -1.63674     6.13434
 H    -1.40371     0.07201     6.33452
 H     2.54441     1.79981     6.08090
 H     2.93435     0.09281     6.34132
 H     0.45979     1.62765     7.36107
 H     1.74384     0.89276     8.32981
 H     2.91907     1.27441     3.68783
 C     2.04790     0.78797     1.21015
 C    -0.51740    -0.74894     1.23415
 H    -1.38194    -1.16839     3.72601
 H     3.14644     0.66263     1.29482
 H     1.88032     1.87483     1.04808
 H    -0.35559    -1.84101     1.10419
 H    -1.61519    -0.61590     1.31671
