   24
 
 C     0.00000     0.00000     0.00000
 C     1.40119     0.00000     0.00000
 C     2.10379     1.20673     0.00000
 C     1.41981     2.42043    -0.00205
 C     0.02445     2.42448     0.00069
 C    -0.68497     1.22397     0.00840
 C    -2.17807     1.27042     0.03101
 C    -0.75831    -1.28639     0.01410
 C     2.17298    -1.27915     0.01052
 H     3.19046     1.19896     0.00095
 C     2.16270     3.71449    -0.00837
 H    -0.50921     3.37099     0.00303
 H    -2.60279     0.84476    -0.89007
 H    -2.58203     0.69982     0.87979
 H    -2.56713     2.29343     0.11940
 H    -0.97053    -1.59686     1.04835
 H    -1.72097    -1.21126    -0.50920
 H    -0.20963    -2.10621    -0.46766
 H     1.87607    -1.91722     0.85556
 H     3.25589    -1.11897     0.09477
 H     2.00472    -1.85093    -0.91416
 H     1.88502     4.33744     0.85431
 H     1.93922     4.29401    -0.91618
 H     3.25127     3.57867     0.02871
