   24
 
 C     0.00000     0.00000     0.00000
 C     1.38530     0.00000     0.00000
 C     2.09569     1.20644     0.00000
 C     1.39654     2.41628    -0.00093
 C    -0.01302     2.41576    -0.00237
 C    -0.71140     1.20568    -0.00150
 H    -0.54165    -0.94357     0.00065
 H     3.94723     0.57116    -0.88635
 H     3.94584     0.56794     0.88706
 H     4.08947     2.08790     0.00291
 H     1.92699    -0.94349     0.00041
 C     3.58702     1.11262     0.00148
 C     2.10886     3.73036    -0.00122
 C    -0.72629     3.72932    -0.00557
 C    -2.20254     1.11039    -0.00175
 H     1.83387     4.33149     0.87799
 H     1.85782     4.31638    -0.89775
 H     3.20248     3.63303     0.01460
 H    -0.45724     4.32472    -0.89052
 H    -0.47021     4.32166     0.88536
 H    -1.81992     3.63113    -0.01371
 H    -2.56202     0.57389    -0.89211
 H    -2.56159     0.56235     0.88186
 H    -2.70571     2.08576     0.00568
