   12
 
 C     0.00000     0.00000     0.00000
 C     1.39208     0.00000     0.00000
 C     2.07442     1.21472     0.00000
 C     1.35005     2.40345     0.00089
 C    -0.04093     2.40249     0.00121
 C    -0.72290     1.18841     0.00078
Cl    -0.80561    -1.49506    -0.00087
Cl    -2.41586     1.16165     0.00064
Cl     2.20814     3.86916     0.00168
Cl    -0.89899     3.86209     0.00305
 H     1.94955    -0.94061    -0.00034
 H     3.16769     1.22725    -0.00068
