   12
 
 C     0.00000     0.00000     0.00000
 C     1.39402     0.00000     0.00000
 C     2.15748     1.16774     0.00000
 C     1.49211     2.39309    -0.00019
 C     0.09932     2.45085    -0.00044
 C    -0.61376     1.25164    -0.00035
 F    -1.93573     1.30208    -0.00073
 F     2.02006    -1.16569     0.00004
 H    -0.57649    -0.92371     0.00006
 H     3.24512     1.12787     0.00015
 H     2.07006     3.31916    -0.00013
 H    -0.41642     3.40940    -0.00069
