   14
 
 C     0.00000     0.00000     0.00000
 C     1.39406     0.00000     0.00000
 C     2.10421     1.20259     0.00000
 C     1.43173     2.42368     0.00039
 C     0.04070     2.42186     0.00068
 C    -0.66986     1.21901     0.00019
 S    -2.42860     1.34945     0.00053
 C    -2.52353     3.12481     0.00135
 S    -0.92289     3.89892     0.00107
 S    -3.89539     3.93485     0.00238
 H    -0.54283    -0.94591    -0.00032
 H     1.93380    -0.94687    -0.00020
 H     3.19408     1.18614    -0.00023
 H     1.99809     3.35569     0.00051
