   19
 
 C     0.00000     0.00000     0.00000
 C     1.52095     0.00000     0.00000
 C     2.21956     1.35339     0.00000
Cl    -0.55784    -1.59911     0.49962
Cl     1.25444     2.60364    -0.75032
 N    -0.59200     0.22828    -1.40148
 N    -0.59549     0.98753     1.01141
 N     3.55001     1.30344    -0.77707
 N     2.58946     1.77659     1.44241
 O     2.21453     2.85207     1.82807
 O     3.24097     0.95332     2.04870
 O     3.76278     0.30769    -1.43070
 O     4.26306     2.27278    -0.67219
 O     0.01923     1.06381     2.05520
 O    -1.59471     1.58530     0.70600
 O    -1.79283     0.27879    -1.49129
 O     0.21346     0.29295    -2.30590
 H     1.87703    -0.61037    -0.88794
 H     1.90423    -0.60558     0.87343
