   10
 
 C     0.00000     0.00000     0.00000
 S     1.77065     0.00000     0.00000
 C     2.04996     1.82013     0.00000
 C     0.85126     2.54104    -0.57772
 S    -0.69777     1.61434    -0.21361
 S    -0.88032    -1.31785     0.17364
 H     2.26788     2.14899     1.03587
 H     2.96836     2.02429    -0.58528
 H     0.74541     3.55938    -0.15422
 H     0.93923     2.67193    -1.67480
