   10
 
 C     0.00000     0.00000     0.00000
 C     1.33623     0.00000     0.00000
 C     2.12450     1.22908     0.00000
 C     3.46073     1.22908     0.00000
 H     4.05346     2.13085     0.00000
 H     4.06283     0.33381     0.00000
 H     1.90415    -0.93279     0.00000
 H    -0.59273    -0.90178    -0.00000
 H    -0.60210     0.89527     0.00000
 H     1.55658     2.16187     0.00000
