   12
 
 O    -0.00666    -0.05573    -0.04525
 C     1.40222     0.00628     0.01343
 O     1.85871     1.33614     0.04045
 C     1.48580     2.07110    -1.10480
 O     0.27660     1.60215    -1.65997
 C    -0.59152     1.04751    -0.70345
 H     1.80680    -0.53673    -0.85794
 H     1.67761    -0.40888     0.99967
 H     2.22990     1.93623    -1.90832
 H     1.36924     3.10829    -0.74483
 H    -0.86860     1.79381     0.06038
 H    -1.43026     0.63393    -1.29108
