   16
 
 C     0.00000     0.00000     0.00000
 O     1.39876     0.00000     0.00000
 C     2.07027     1.22685     0.00000
 O     2.29812     1.71305    -1.29164
 C     1.31206     2.50152    -1.89344
 O     0.36670     1.74038    -2.58788
 C    -0.75708     1.27283    -1.89910
 O    -0.53729     0.03313    -1.29021
 H    -0.41432     0.79177     0.64349
 H    -0.23774    -1.03562     0.32943
 H     3.09202     0.93985     0.33216
 H     1.57379     1.97235     0.64067
 H     1.87259     2.99574    -2.71745
 H     0.84313     3.19613    -1.17894
 H    -1.45208     1.01000    -2.72681
 H    -1.14966     2.01882    -1.19073
