   21
 
 C     0.00000     0.00000     0.00000
 N     1.40308     0.00000     0.00000
 C     2.20169     1.15663     0.00000
 N     1.49906     2.37130     0.00016
 C     0.09835     2.48480    -0.00082
 N    -0.60277     1.26944    -0.00301
 O    -0.65341    -1.01696    -0.00054
 C    -2.07457     1.30130    -0.00434
 O     3.40919     1.09993     0.00014
 C     2.11009    -1.29129    -0.00191
 O    -0.45617     3.55883    -0.00017
 C     2.26341     3.62964     0.00110
 H    -2.46784     0.78453     0.89102
 H    -2.46582     0.78768    -0.90238
 H    -2.44495     2.34422    -0.00309
 H     2.74591    -1.37621    -0.90292
 H     2.75863    -1.37182     0.89051
 H     1.39137    -2.13286     0.00555
 H     2.01297     4.22686     0.89774
 H     2.01460     4.22706    -0.89586
 H     3.35170     3.42843     0.00195
