   50
 
 C     0.00000     0.00000     0.00000
 C     1.50564     0.00000     0.00000
 C    -0.40575     1.41233     0.00000
 C     0.72798     2.16139     0.00051
 C     1.93695     1.28024     0.00055
 C     1.89802    -1.40306    -0.00125
 C     0.76678    -2.16197    -0.00220
 C    -0.43471    -1.27414    -0.00150
 C    -1.83197     1.85360    -0.00046
 C    -2.51770     1.30099    -1.26324
 C    -2.52007     1.29724     1.25940
 C    -1.93984     3.38738     0.00174
 C     3.32028     1.84084    -0.00187
 C     3.50373     2.69025    -1.27266
 C     3.49978     2.71556     1.25220
 C     4.37339     0.72165     0.01128
 C     0.63835    -3.64969    -0.00595
 C    -0.13577    -4.08891     1.25102
 C    -0.12752    -4.08110    -1.27083
 C     2.02012    -4.32625    -0.00331
 H     0.81181     3.22767     0.00070
 H     2.91656    -1.73220    -0.00131
 H    -1.43511    -1.65460    -0.00257
 H    -2.02408     1.66516    -2.17124
 H    -2.48265     0.20634    -1.29038
 H    -3.56808     1.60309    -1.30790
 H    -2.02826     1.65917     2.16930
 H    -2.48478     0.20254     1.28366
 H    -3.57061     1.59894     1.30283
 H    -1.46244     3.81927     0.88789
 H    -1.46203     3.82161    -0.88306
 H    -2.98642     3.70863     0.00162
 H     2.79529     3.52451    -1.30638
 H     3.34471     2.08780    -2.17449
 H     4.51338     3.10902    -1.32448
 H     2.80739     3.56377     1.25546
 H     3.31606     2.13669     2.16471
 H     4.51612     3.11714     1.31058
 H     4.27514     0.07528    -0.86835
 H     4.26924     0.09079     0.90150
 H     5.38823     1.13100     0.01098
 H     0.37346    -3.75413     2.16181
 H    -1.14730    -3.67130     1.26810
 H    -0.22594    -5.17808     1.29939
 H     0.37896    -3.72688    -2.17578
 H    -1.14402    -3.67546    -1.28413
 H    -0.20437    -5.17042    -1.33475
 H     2.59974    -4.04319     0.88188
 H     2.60082    -4.04700    -0.88906
 H     1.92620    -5.41667    -0.00135
