   14
 
 C     0.00000     0.00000     0.00000
 C     1.53168     0.00000     0.00000
 C     0.00111     2.35393     0.00000
 C     1.53287     2.35320     0.00566
 O     2.01179     1.17490     0.63166
 O    -0.47981     1.17731    -0.62721
 H    -0.41056    -0.06342     1.02269
 H    -0.42653    -0.80365    -0.62470
 H     1.94198    -0.06112    -1.02274
 H     1.95744    -0.80663     0.62150
 H    -0.42045     3.15681    -0.63039
 H    -0.41423     2.42317     1.01991
 H     1.95663     3.15642     0.63319
 H     1.94812     2.42024    -1.01490
