   12
 
 C     0.00000     0.00000     0.00000
 C     1.39550     0.00000     0.00000
 C     2.16067     1.16698     0.00000
 C     1.49877     2.39170    -0.00026
 C     0.10331     2.39172    -0.00065
 C    -0.66176     1.22473    -0.00065
 F     2.02452    -1.16590     0.00011
 F    -0.52629     3.55731    -0.00111
 H    -0.56233    -0.93371     0.00009
 H     3.24983     1.12582     0.00019
 H     2.06093     3.32556    -0.00017
 H    -1.75094     1.26605    -0.00101
