   20
 
 C     0.00000     0.00000     0.00000
 C     1.52453     0.00000     0.00000
 C     0.78296     1.30812     0.00000
 C    -3.24891    -1.83210     5.46680
 C    -3.91995    -3.20033     5.50872
 C    -4.76726    -1.96123     5.42225
 C    -2.55566    -1.43987     4.29770
 C    -1.95681    -1.10507     3.29288
 C    -0.69078    -0.39050     1.17104
 C    -1.29040    -0.72889     2.17415
 H    -0.51402    -0.29196    -0.93226
 H     2.05405    -0.32818    -0.88943
 H     2.05619    -0.31968     0.89353
 H     0.78173     1.92848     0.89355
 H     0.77343     1.93102    -0.88945
 H    -2.79137    -1.45463     6.39774
 H    -3.88818    -3.77809     6.42758
 H    -3.83753    -3.85939     4.64728
 H    -5.29343    -1.73007     4.49871
 H    -5.35190    -1.63782     6.27827
