   14
 
 C     0.00000     0.00000     0.00000
 C     1.49562     0.00000     0.00000
 C     2.22775     1.11641     0.00000
 C     1.63180     2.48815    -0.00074
 C     0.13623     2.48814    -0.00201
 C    -0.59581     1.37160    -0.00201
 H    -0.36974    -0.56243     0.88829
 H    -0.36983    -0.56665    -0.88547
 H     1.95250    -0.98703     0.00009
 H     3.31516     1.09090     0.00046
 H     2.00169     3.05149    -0.88858
 H     2.00193     3.05327     0.88561
 H    -0.32083     3.47510    -0.00298
 H    -1.68322     1.39734    -0.00312
