   14
 
 I     0.00000     0.00000     0.00000
 C     2.16589     0.00000     0.00000
 C     2.74544     1.40886     0.00000
 C     4.28246     1.32537     0.00248
 C     4.86032     2.73402     0.00097
 I     7.02807     2.72662     0.00970
 H     2.47536    -0.56597     0.89339
 H     2.47467    -0.56535    -0.89423
 H     2.39755     1.98382     0.88201
 H     2.40127     1.98130    -0.88523
 H     4.62359     0.75089     0.88740
 H     4.62664     0.74982    -0.88060
 H     4.55101     3.30193     0.89301
 H     4.55751     3.29777    -0.89575
