   16
 
 C     0.00690     0.00807    -0.04000
 C     1.33276     0.03818    -0.17063
 C     2.12916     1.30334    -0.16007
 C     3.08855     1.34698    -1.36223
 C     3.88694     2.61076    -1.34962
 C     5.21309     2.63885    -1.47691
 H     5.78982     3.55009    -1.47900
 H     5.82760     1.75987    -1.58811
 H     3.29948     3.52239    -1.23662
 H     2.50884     1.28301    -2.30806
 H     3.74311     0.45297    -1.35721
 H     2.70889     1.36949     0.78586
 H     1.47301     2.19609    -0.16624
 H     1.92109    -0.87262    -0.28473
 H    -0.60903     0.88578     0.07231
 H    -0.56805    -0.90427    -0.03631
