   19
 
 C     0.00000     0.00000     0.00000
 C     1.53164     0.00000     0.00000
 C     2.06721     1.43358     0.00000
 C     3.59797     1.43033     0.00288
 C     4.13670     2.86351     0.00187
 O    -0.35439    -1.37635     0.00190
 O     5.54988     2.71188     0.00946
 H    -0.41616     0.47821     0.90358
 H    -0.41651     0.47608    -0.90427
 H     1.90180    -0.56363     0.87885
 H     1.90139    -0.56246    -0.87991
 H     1.68931     1.97992    -0.88543
 H     1.68672     1.98107     0.88372
 H     3.99146     0.88550     0.88340
 H     3.99446     0.88401    -0.87548
 H     3.84112     3.41826    -0.90552
 H     3.83165     3.42386     0.90243
 H    -1.32361    -1.47922     0.00358
 H     5.98658     3.58325     0.00769
