   22
 
 O     0.00000     0.00000     0.00000
 C     1.42133     0.00000     0.00000
 C     1.80679     1.48167     0.00000
 C     3.32856     1.64006     0.00322
 C     3.71467     3.12523     0.00232
 C     5.23673     3.28296     0.00785
 C     5.62340     4.76398     0.00625
 O     7.04533     4.75950     0.01413
 H    -0.34027    -0.91316     0.00015
 H     1.78023    -0.52245     0.90378
 H     1.77991    -0.52252    -0.90387
 H     1.35246     1.98119     0.87772
 H     1.35716     1.97971    -0.88107
 H     3.76383     1.13759     0.88805
 H     3.76745     1.13645    -0.87923
 H     3.27342     3.62940     0.88310
 H     3.28086     3.62606    -0.88414
 H     5.68397     2.78437     0.88972
 H     5.69036     2.78142    -0.86921
 H     5.26197     5.28940     0.90715
 H     5.27229     5.28489    -0.90111
 H     7.38881     5.67140     0.01454
