   47
 
 C     0.00000     0.00000     0.00000
 C     1.39020     0.00000     0.00000
 C    -0.70045     1.20912     0.00000
 C     2.09071     1.20906     0.01472
 C     1.38737     2.40876     0.14693
 C     3.57761     1.20863    -0.16257
 C    -0.00480     2.41099     0.13322
 C    -2.17159     1.20673    -0.32415
 C    -1.62748     1.71704    -4.01952
 C    -1.94889     1.99486    -2.69582
 C    -2.20132     0.94719    -1.80630
 C    -1.55252     0.39114    -4.45658
 C    -1.95968    -0.63914    -3.60660
 C    -0.94456     0.07119    -5.78652
 C    -2.28794    -0.36171    -2.28254
 C     4.01439     2.07859    -1.35634
 C     3.20364     1.83093    -2.63655
 C     3.43768     0.43588    -3.23005
 C     2.78350     0.30504    -4.61535
 C     1.27425     0.04743    -4.51330
 C     0.54886     0.46197    -5.80235
 H    -0.54261    -0.94192    -0.04872
 H     1.92951    -0.94343    -0.04533
 H     1.92952     3.34833     0.22516
 H     3.95556     0.17634    -0.30727
 H     4.07070     1.57445     0.76150
 H    -0.54588     3.35216     0.19212
 H    -2.66098     2.16325    -0.06018
 H    -2.71754     0.43277     0.24859
 H    -1.38659     2.52755    -4.70348
 H    -1.95244     3.02276    -2.34045
 H    -1.97977    -1.66588    -3.96396
 H    -1.47802     0.60121    -6.60030
 H    -1.04669    -1.00626    -6.02242
 H    -2.56395    -1.17104    -1.61110
 H     5.08889     1.90678    -1.55571
 H     3.92605     3.14754    -1.08067
 H     3.46607     2.60369    -3.38430
 H     2.12297     1.97149    -2.43301
 H     3.03962    -0.33629    -2.54564
 H     4.52229     0.23923    -3.31127
 H     3.26237    -0.51783    -5.17742
 H     2.97680     1.21988    -5.20581
 H     0.85282     0.60687    -3.65330
 H     1.08153    -1.01655    -4.28782
 H     1.03785    -0.00202    -6.67815
 H     0.64277     1.55583    -5.93953
