   13
 
 C    -0.01491    -0.01571     0.02838
 C     1.32027    -0.01651     0.02548
 C     2.13446     1.19541     0.03302
 C     1.88319     2.25237    -0.74904
 C     2.72001     3.48254    -0.74834
 H    -0.60726    -0.91701     0.03231
 H    -0.61447     0.88088     0.03673
 H     1.89019    -0.94895     0.03078
 H     2.98161     1.17604     0.71921
 H     1.04295     2.26541    -1.44255
 H     3.56931     3.42483    -0.05513
 H     3.13167     3.68245    -1.74887
 H     2.12545     4.36303    -0.46008
