   31
 
 C     0.00000     0.00000     0.00000
 C     1.47495     0.00000     0.00000
 C     1.86181     2.36182     0.00000
 C     0.87598     2.87204     0.85689
 C     2.13711    -1.32334     0.02994
 H    -1.79203    -1.15538     0.17926
 H     1.90259    -3.43617     0.25288
 H    -0.48599     0.96158    -0.18166
 H     3.22457    -1.31310    -0.09203
 N     2.26427     1.02017    -0.02418
 C     2.56780     3.24350    -0.83753
 C     0.57635     4.22508     0.85636
 C     2.25954     4.59234    -0.85276
 H     0.36110     2.20682     1.55119
 H     3.35460     2.84829    -1.48377
 C     1.25768     5.11380    -0.00292
 H    -0.18303     4.59260     1.54114
 H     2.81248     5.24765    -1.52003
 N     1.03677     6.49490     0.07831
 C     1.46694     7.31184    -1.06836
 C    -0.25065     6.93524     0.64091
 H     2.56905     7.27169    -1.15123
 H     1.20469     8.37022    -0.90282
 H     1.02351     6.98998    -2.02464
 H    -0.30282     6.64182     1.70594
 H    -0.32189     8.03548     0.61626
 H    -1.12311     6.51867     0.11186
 C    -0.02829    -2.42893     0.38586
 C    -0.70275    -1.12397     0.18017
 C     1.44004    -2.45046     0.21385
 O    -0.65421    -3.42406     0.66749
