    9
 
 N     0.00000     0.00000     0.00000
 C     1.35469     0.00000     0.00000
 C     1.84265     1.34286     0.00000
 C     0.70485     2.15101    -0.00021
 N    -0.38758     1.29842     0.00028
 H     1.92286    -0.91130    -0.00001
 H     2.86405     1.64687     0.00012
 H     0.60995     3.21779    -0.00028
 H    -1.36167     1.51569     0.00028
