   27
 
 C     0.00000     0.00000     0.00000
 C     1.52614     0.00000     0.00000
 C     2.09494     1.43242     0.00000
 O     2.19210     1.78424     1.37139
 C     1.75259     3.06832     1.78158
 C     2.47384     4.18728     1.02113
 C     0.23144     3.19038     1.62674
 C     2.15318     3.07144     3.26673
 C     3.51821     1.45262    -0.57213
 H    -0.40614     0.49121    -0.89024
 H    -0.39146     0.52600     0.88014
 H    -0.39739    -1.02067     0.02590
 H     1.90661    -0.56059    -0.87230
 H     1.90583    -0.53191     0.89668
 H     1.43441     2.12998    -0.55228
 H     3.56040     4.05325     1.07806
 H     2.19607     4.20656    -0.03656
 H     2.23502     5.16759     1.44483
 H    -0.07020     3.20945     0.57556
 H    -0.27012     2.33685     2.09911
 H    -0.14395     4.10292     2.09845
 H     1.64343     2.26518     3.80704
 H     3.23051     2.89862     3.37588
 H     1.90258     4.02145     3.74364
 H     3.94238     2.46106    -0.53882
 H     4.17975     0.80894     0.02069
 H     3.53979     1.10686    -1.60872
