   31
 
 C     0.00000     0.00000     0.00000
 C     1.53078     0.00000     0.00000
 O     2.12512     1.04983     0.00000
 C     2.24062    -1.29750    -0.10182
 C     3.03427    -1.53515    -1.22504
 C     3.70556    -2.74903    -1.34914
 C     3.59625    -3.71291    -0.34704
 C     2.81779    -3.46370     0.78168
 C     2.13708    -2.25389     0.90596
 N    -0.47230    -0.79025     1.15331
 C    -0.81988     0.07775     2.30918
 C     0.43941     0.75535     2.85868
 C    -1.61285    -1.67218     0.79227
 C    -1.12281    -2.82944    -0.08616
 H    -0.36544     1.05209     0.01100
 H    -0.34254    -0.43407    -0.96552
 H     3.13255    -0.77086    -1.99556
 H     4.32014    -2.94253    -2.22544
 H     4.12350    -4.65961    -0.44520
 H     2.73927    -4.21215     1.56692
 H     1.51441    -2.05549     1.78316
 H    -1.58647     0.84046     2.05617
 H    -1.25598    -0.57255     3.10111
 H     1.24940     0.02888     3.00498
 H     0.82410     1.52489     2.17614
 H     0.24025     1.23435     3.82205
 H    -2.03674    -2.09051     1.73314
 H    -2.43513    -1.12388     0.28667
 H    -0.83016    -2.49807    -1.08745
 H    -0.23962    -3.30944     0.35977
 H    -1.89833    -3.59305    -0.19853
