   25
 
 C     0.00000     0.00000     0.00000
 C     1.53826     0.00000     0.00000
 C     1.99502     1.44806     0.00000
 C     1.51165     2.25340     1.19318
 C    -0.02606     2.22592     1.17908
 C    -0.51898     0.76602     1.23284
 C     2.07134    -0.65668     1.28446
 C     0.00979     0.09413     2.51381
 C     2.04587     1.56950     2.46313
 C     1.54982     0.11097     2.51510
 H    -0.37741    -1.03809     0.00768
 H    -0.38434     0.45848    -0.92916
 H     1.92624    -0.53079    -0.89758
 O     2.67901     1.91705    -0.87072
 H     3.17637    -0.67057     1.27879
 H     1.88211     3.30077     1.13100
 H    -0.41107     2.73021     0.27418
 H    -0.42238     2.79484     2.03888
 H    -1.63144     0.75095     1.23676
 H     1.75233    -1.71326     1.32900
 H    -0.35985    -0.94397     2.58055
 H    -0.37822     0.61578     3.40610
 H     1.70860     2.12051     3.35913
 H     3.15037     1.60199     2.48166
 H     1.92643    -0.37548     3.44216
