   18
 
 C     0.00000     0.00000     0.00000
 C     1.41245     0.00000     0.00000
 C    -0.69740     1.23949     0.00000
 C    -0.00493     2.42264    -0.00022
 C     2.10690     1.24114     0.00026
 C     1.41299     2.42353    -0.00058
 C    -0.69924    -1.23972    -0.00056
 C     0.01585    -2.40463    -0.00095
 C     2.11192    -1.23936    -0.00080
 C     1.42837    -2.42822    -0.00051
Br    -0.90584    -4.06505    -0.00185
 H    -1.78634     1.22812    -0.00000
 H    -0.53043     3.37642    -0.00027
 H     3.19568     1.23172     0.00034
 H     1.93710     3.37800    -0.00073
 H    -1.78932    -1.22368    -0.00054
 H     3.20165    -1.22494    -0.00058
 H     1.96314    -3.37836    -0.00094
