   11
 
 C     0.00000     0.00000     0.00000
 C     1.36281     0.00000     0.00000
 C     2.11596     1.18496     0.00000
 C     3.55938     1.18740     0.00000
 H    -0.61384     0.90398     0.00000
 H    -0.58439    -0.92905    -0.00000
 H     1.90070    -0.96566     0.00000
 H     1.59716     2.16510    -0.00003
 H     4.03341     2.19094     0.00000
 H     4.00384     0.63192     0.86645
 H     4.00356     0.63249    -0.86698
