   14
 
Cl     0.00000     0.00000     0.00000
 C     1.71057     0.00000     0.00000
 C     2.35467     1.22978     0.00000
 C     3.74965     1.25134    -0.00007
 C     4.47010     0.05739    -0.00018
 C     3.80084    -1.16438    -0.00023
 C     2.40267    -1.20704    -0.00010
 C     1.73326    -2.53010     0.00001
 O     2.37894    -3.55078    -0.00005
 H     1.79072     2.16260     0.00006
 H     4.27621     2.20646    -0.00009
 H     5.55950     0.07937    -0.00021
 H     4.36222    -2.10550    -0.00027
 H     0.63641    -2.56729     0.00015
