    9
 
Cl     0.00000     0.00000     0.00000
 C     1.74400     0.00000     0.00000
 C     2.38690     1.15982     0.00000
 C     2.30790    -1.36218    -0.00060
 H     3.46387     1.24212    -0.00006
 H     1.90405     2.12714     0.00008
 H     1.98196    -1.94449     0.87936
 H     1.99695    -1.93720    -0.89049
 H     3.40897    -1.35997     0.00999
