    9
 
Cl     0.00000     0.00000     0.00000
 C     1.73345     0.00000     0.00000
 C     2.36433     1.16625     0.00000
 C     2.29582    -1.36287    -0.00065
 H     3.44042     1.25938    -0.00007
 H     1.87100     2.12830     0.00011
 H     1.96887    -1.94436     0.87943
 H     1.98351    -1.93712    -0.89055
 H     3.39681    -1.36190     0.00983
