   11
 
Cl     0.00000     0.00000     0.00000
 C     1.80786     0.00000     0.00000
 C     2.25198     1.44673     0.00000
 C     2.25133    -0.76660     1.22759
 H     2.08030    -0.52281    -0.94112
 H     1.90034     1.98849     0.89014
 H     3.34687     1.52807    -0.01442
 H     1.87423     1.99261    -0.87685
 H     3.34596    -0.82297     1.28926
 H     1.89676    -0.30020     2.15828
 H     1.87257    -1.79920     1.22617
