   14
 
 C     0.00000     0.00000     0.00000
 C     1.54865     0.00000     0.00000
 C     1.93754     1.45086     0.00000
 C     0.87811     2.26692     0.02755
 C    -0.42524     1.49923     0.07369
 C    -1.28457     1.86130    -1.03256
 N    -1.97373     2.14989    -1.91543
 H    -0.40275    -0.56378     0.85441
 H    -0.39490    -0.48499    -0.90743
 H     1.95381    -0.52488    -0.88399
 H     1.95408    -0.52554     0.88291
 H     2.97707     1.73010    -0.02314
 H     0.86656     3.34145     0.02550
 H    -0.94950     1.70336     1.04637
