   15
 
 C     0.00000     0.00000     0.00000
 C     1.52621     0.00000     0.00000
 C     2.08973     1.43775     0.00000
 C     2.01973     2.07775     1.39145
 C     3.47312     1.41060    -0.44443
 N     4.57309     1.39336    -0.80163
 H    -0.40831     0.53146     0.86735
 H    -0.40742     0.47424    -0.90049
 H    -0.39284    -1.02411     0.03303
 H     1.90934    -0.55726     0.87693
 H     1.89680    -0.55129    -0.88819
 H     1.48813     2.06177    -0.72041
 H     2.60997     1.51831     2.12797
 H     2.39925     3.10718     1.38119
 H     0.98626     2.11101     1.75758
