   15
 
 C     0.04493    -0.06392    -0.12976
 N     1.26400     0.26391     0.33280
 C     1.60301     1.48546    -0.23237
 C     0.56896     1.91859    -1.06052
 N    -0.42187     0.93572    -0.99226
 C    -0.73232    -1.28060     0.20654
 C    -0.76358    -2.26093    -0.96665
 H     2.54135     1.95243    -0.00587
 H     0.46838     2.79969    -1.65560
 H    -1.28570     0.94812    -1.48147
 H    -0.26695    -1.77259     1.09560
 H    -1.76256    -1.01563     0.52302
 H    -1.24753    -1.83195    -1.84931
 H     0.25330    -2.55648    -1.26063
 H    -1.30577    -3.17644    -0.70149
