   15
 
 O     0.00000     0.00000     0.00000
 C     1.34701     0.00000     0.00000
 C     2.01093     1.23689     0.00000
 C     3.40007     1.19048    -0.00027
 C     4.05957    -0.03947    -0.00057
 C     3.30587    -1.22441    -0.00060
 N     1.95421    -1.20689    -0.00060
 H     5.14267    -0.08425    -0.00072
 H    -0.36470    -0.93256     0.00004
 H     1.45283     2.16549     0.00010
 H     3.97575     2.11747    -0.00029
 C     3.95952    -2.56467    -0.00105
 H     4.59400    -2.69893    -0.88957
 H     4.59397    -2.69986     0.88732
 H     3.22117    -3.38464    -0.00164
