   18
 
 C     0.00000     0.00000     0.00000
 C     1.41174     0.00000     0.00000
 C    -0.69672     1.24024     0.00000
 C    -0.00349     2.42283    -0.00004
 C     2.10771     1.24037    -0.00014
 C     1.41455     2.42302     0.00004
 C    -0.70125    -1.23824     0.00011
 C     0.00615    -2.41048     0.00018
 C     2.10687    -1.24062     0.00035
 C     1.42124    -2.42855    -0.00005
 I    -1.02697    -4.25691     0.00059
 H    -1.78567     1.22968     0.00012
 H    -0.52848     3.37697    -0.00004
 H     3.19650     1.22931    -0.00020
 H     1.93907     3.37733    -0.00004
 H    -1.79134    -1.20861     0.00008
 H     3.19709    -1.22974     0.00026
 H     1.96578    -3.37334     0.00001
