   15
 
 C     0.00000     0.00000     0.00000
 C     1.39137     0.00000     0.00000
 C     2.10313     1.20395     0.00000
 C     1.42250     2.42230     0.00105
 C     0.01393     2.40115     0.00269
 C    -0.69445     1.20767     0.00171
 I     4.21376     0.97990     0.00047
 O     1.26901     4.80425     0.00158
 C     1.95004     3.80450    -0.00208
 H    -0.53603     3.35256     0.00471
 H    -1.78390     1.21651     0.00292
 O     3.29372     3.93222    -0.01195
 H     1.90549    -0.96365    -0.00085
 H     3.59052     4.88100    -0.01519
 H    -0.54397    -0.94532    -0.00150
