   11
 
 C     0.00000     0.00000     0.00000
 C     1.52063     0.00000     0.00000
 C    -0.55166     1.41656     0.00000
 I    -0.74934    -1.09940     1.74941
 H    -0.39562    -0.57800    -0.86238
 H     1.94744    -1.01147     0.01176
 H    -1.64918     1.44690     0.01281
 H     1.90195     0.49174    -0.90696
 H     1.94439     0.54247     0.85547
 H    -0.23264     1.95027    -0.90734
 H    -0.19972     2.00869     0.85524
