   26
 
 C    -0.02129     0.02374    -0.06776
 C     1.32558     0.05142    -0.44053
 C     2.06699     1.22759    -0.37888
 C     1.49020     2.42192     0.05853
 C     0.14288     2.40579     0.43192
 C    -0.60100     1.21657     0.36410
 C    -0.82737    -1.24382    -0.13563
 C    -0.99011    -1.68576    -1.59614
 C    -0.16885    -2.35071     0.69826
 C     2.26086     3.69068     0.13307
 O    -1.90710     1.34565     0.74107
 O    -0.39419     3.58033     0.85537
 H     1.80279    -0.86424    -0.78616
 H     3.11392     1.21847    -0.67568
 H    -1.85420    -1.06849     0.28604
 H    -1.44219    -0.89224    -2.20287
 H    -0.02433    -1.93058    -2.05235
 H    -1.62699    -2.57291    -1.67469
 H     0.79773    -2.65268     0.27995
 H     0.01290    -2.01789     1.72697
 H    -0.80119    -3.24384     0.74076
 H     2.20985     4.12787     1.14386
 H     1.84153     4.44667    -0.55094
 H     3.31983     3.56281    -0.12067
 H    -2.36460     0.46572     0.76808
 H    -1.34805     3.45616     1.10609
