   24
 
 C    -0.02269     0.02696     0.00902
 C     1.36992     0.05073     0.15581
 C     2.09660     1.16727    -0.23777
 C     1.42970     2.26439    -0.78421
 C     0.04855     2.23857    -0.93634
 C    -0.69914     1.11897    -0.55003
 C    -0.74317    -1.16529     0.47713
 O    -1.84943    -1.26273     0.94544
 O     0.02737    -2.28235     0.34362
 C    -2.19639     1.13146    -0.71841
 C    -2.61563     1.74002    -2.06211
 C    -2.80650     1.91147     0.45420
 H     1.88695    -0.81407     0.58045
 H     3.17771     1.18605    -0.12047
 H     1.99320     3.14449    -1.09273
 H    -0.46153     3.10310    -1.35874
 H    -0.42504    -3.10399     0.65716
 H    -2.60026     0.08432    -0.68782
 H    -2.06933     1.28034    -2.89341
 H    -2.44010     2.81986    -2.10172
 H    -3.68586     1.58006    -2.24157
 H    -2.41596     2.93182     0.51439
 H    -2.58932     1.40956     1.40760
 H    -3.89597     1.97267     0.36088
