   16
 
 C    -0.01034     0.00562    -0.01477
 C    -1.05824     1.12128     0.01191
 C    -0.69243    -1.36691     0.00943
 C     0.87003     0.11607    -1.28203
 N     1.78849     1.27367    -1.16955
 H     0.64040     0.10261     0.88751
 H    -0.58160     2.10243    -0.12669
 H    -1.79421     1.00611    -0.79039
 H    -1.59870     1.14079     0.96244
 H    -1.31731    -1.51876    -0.87747
 H     0.03766    -2.18139     0.04864
 H    -1.34283    -1.46596     0.88585
 H     1.41117    -0.83959    -1.44890
 H     0.22945     0.28414    -2.17540
 H     2.29118     1.27053    -0.29800
 H     2.45137     1.29432    -1.92625
