   15
 
 C     0.00000     0.00000     0.00000
 C     1.49281     0.00000     0.00000
 C     2.11066     1.36273     0.00000
 C     2.24814    -1.10643    -0.00143
 C     1.71371    -2.49707    -0.00299
 H    -0.39419     0.49723    -0.89757
 H    -0.39615     0.53743     0.87300
 H    -0.42653    -1.01072     0.02249
 H     1.79966     1.93806     0.88309
 H     1.80577     1.93455    -0.88749
 H     3.20753     1.33193     0.00415
 H     3.33457    -1.03819    -0.00188
 H     1.09089    -2.69102     0.88187
 H     1.09485    -2.68988    -0.89090
 H     2.51786    -3.24433    -0.00190
