   28
 
 C    -0.04829    -0.02585     0.00903
 C     1.01767     0.03356    -0.89456
 C     1.70032     1.23042    -1.09241
 C     1.32780     2.37122    -0.38391
 C     0.25478     2.32148     0.50255
 C    -0.42784     1.12447     0.70557
 C    -0.77837    -1.30847     0.21007
 S     2.19071     3.89035    -0.64027
 O     2.93900     3.76438    -1.87530
 O     1.24875     4.96796    -0.43513
 C     3.37212     3.90893     0.72622
 C     4.36707     5.01430     0.56620
 C     5.51340     4.73261    -0.34541
 C     4.23914     6.17345     1.21748
 H     1.30732    -0.85547    -1.44926
 H     2.51931     1.26504    -1.82128
 H    -0.07798     3.21894     1.03570
 H    -1.26370     1.08911     1.40012
 H    -1.56240    -1.24009     0.97623
 H    -1.26911    -1.63639    -0.71991
 H    -0.09945    -2.11767     0.51745
 H     3.89184     2.93273     0.78947
 H     2.82301     4.01236     1.68373
 H     5.16465     4.46940    -1.36292
 H     6.12372     3.89395     0.01183
 H     6.18001     5.59660    -0.46169
 H     3.41613     6.41039     1.87203
 H     4.94158     6.98580     1.13162
