   20
 
 C     0.00000     0.00000     0.00000
 C     1.36994     0.00000     0.00000
 C     2.09368     1.22032     0.00000
 C     1.43463     2.42324     0.00006
 C     0.01660     2.45965    -0.00035
 C    -0.70449     1.23950    -0.00115
 N    -2.08016     1.20786    -0.00188
 C    -2.74728     2.35079    -0.00176
 C    -2.09500     3.62710    -0.00043
 C    -0.72787     3.67235     0.00045
 C    -4.23905     2.28419    -0.00355
 H    -0.58149    -0.92246     0.00013
 H     1.92487    -0.93777     0.00012
 H     3.18166     1.18223    -0.00008
 H     1.98347     3.36376     0.00048
 H    -2.69987     4.52848    -0.00009
 H    -0.19147     4.62115     0.00164
 H    -4.66168     2.78037     0.88168
 H    -4.65870     2.76840    -0.89679
 H    -4.60194     1.24184     0.00282
