   22
 
 C     0.00000     0.00000     0.00000
 C     1.53025     0.00000     0.00000
 C     2.06191     1.46865     0.00000
 C     1.62142     2.20167    -1.18606
 N     1.27362     2.78724    -2.11980
 O     1.49987     2.05551     1.16114
 C     2.07246     3.30630     1.49983
 C     2.05525    -0.69267     1.26264
 C     2.06387    -0.71369    -1.24778
 H    -0.39803     0.57868     0.84472
 H    -0.40780     0.44731    -0.91431
 H    -0.40081    -1.01610     0.07729
 H     3.17883     1.47522     0.07014
 H     3.14078     3.21086     1.71407
 H     1.89446     4.04957     0.71560
 H     1.52455     3.58266     2.41104
 H     3.14799    -0.75111     1.27465
 H     1.74134    -0.15698     2.16871
 H     1.67047    -1.71583     1.34108
 H     1.68618    -0.26010    -2.17219
 H     3.15754    -0.70207    -1.29197
 H     1.74975    -1.76480    -1.25802
