   29
 
 C     0.00000     0.00000     0.00000
 C     1.41610     0.00000     0.00000
 C     2.10794     1.20508     0.00000
 C     1.41311     2.40925     0.00431
 C     0.02201     2.40430     0.01136
 C    -0.71781     1.22043     0.00513
 N    -0.64415    -1.24719     0.07759
 C     2.18722    -1.27947     0.01069
 C    -2.23599     1.28857     0.01491
 C    -2.76944     2.73862    -0.03489
 C    -2.81133     0.58035    -1.23080
 C    -2.77725     0.66672     1.31496
 H     3.19663     1.20838    -0.00261
 H     1.95340     3.35145     0.00321
 H    -0.48142     3.37107     0.02408
 H    -0.14480    -2.03830    -0.28112
 H    -1.62288    -1.27227    -0.14611
 H     1.90874    -1.90538     0.87306
 H     2.02221    -1.86252    -0.90569
 H     3.27025    -1.10968     0.08599
 H    -2.42938     3.32416     0.82624
 H    -2.45663     3.25207    -0.95017
 H    -3.86504     2.75093    -0.01442
 H    -2.76654    -0.50844    -1.16609
 H    -2.26867     0.88683    -2.13275
 H    -3.86654     0.83758    -1.37834
 H    -2.42088     1.23088     2.18634
 H    -2.45321    -0.36570     1.47055
 H    -3.87145     0.67564     1.33259
