   12
 
 C     0.00000     0.00000     0.00000
 C     1.48742     0.00000     0.00000
 C    -0.75391     1.10098     0.00000
 C    -0.58912    -1.35555     0.00085
 O    -0.01970    -2.41671     0.00788
 O    -1.95036    -1.31664    -0.00781
 H     1.88947    -0.52427     0.88318
 H     1.88961    -0.53010    -0.87960
 H     1.91348     1.01153    -0.00362
 H    -1.83786     1.08530     0.00016
 H    -0.34623     2.10210    -0.00026
 H    -2.36506    -2.21454    -0.00739
