   21
 
 C     0.00000     0.00000     0.00000
 C     1.37291     0.00000     0.00000
 C     2.08972     1.22269     0.00000
 C     1.43234     2.42623    -0.00022
 C     0.00840     2.45182    -0.00064
 C    -0.70530     1.22594    -0.00075
 C    -2.12903     1.32300    -0.00128
 C    -2.76789     2.54048    -0.00161
 C    -1.95353     3.71290    -0.00109
 N    -0.62790     3.67282    -0.00039
 C    -2.60091     5.05856    -0.00180
 O    -2.77902     0.13928    -0.00153
 H    -0.56897    -0.93159     0.00016
 H     1.92879    -0.93511     0.00010
 H     3.17961     1.18938     0.00018
 H     1.96376     3.37807    -0.00018
 H    -3.84439     2.63543    -0.00215
 H    -3.23719     5.19405    -0.88791
 H    -3.22735     5.19936     0.89058
 H    -1.85394     5.87138    -0.00817
 H    -3.76464     0.25079    -0.00197
