   26
 
 C     0.00000     0.00000     0.00000
 C     1.52911     0.00000     0.00000
 C     2.07759     1.43298     0.00000
 C     3.61140     1.42738     0.00682
 C     4.15783     2.86025    -0.00734
 C     5.69625     2.88423     0.06978
 C     6.32243     2.41925    -1.25029
 C     6.17451     4.30520     0.39863
 H    -0.40071     0.51261     0.88145
 H    -0.40041     0.50550    -0.88571
 H    -0.39653    -1.02117     0.00400
 H     1.90596    -0.55122     0.88214
 H     1.90592    -0.54993    -0.88301
 H     1.70217     1.98025    -0.88458
 H     1.69480     1.98328     0.87957
 H     3.98297     0.88627     0.89692
 H     3.99008     0.86666    -0.86795
 H     3.81592     3.38844    -0.91596
 H     3.73450     3.42518     0.84497
 H     6.02520     2.19749     0.88656
 H     6.03439     1.38958    -1.48779
 H     6.00809     3.05107    -2.08765
 H     7.41607     2.45228    -1.20364
 H     5.86909     5.01859    -0.37398
 H     5.76701     4.65347     1.35338
 H     7.26645     4.34769     0.47212
