   20
 
 C     0.00000     0.00000     0.00000
 C     1.40545     0.00000     0.00000
 C     2.07255     1.22762     0.00000
 C     1.35717     2.42105    -0.01414
 C    -0.03452     2.40868    -0.02453
 C    -0.73300     1.19923    -0.00948
 N    -0.71052    -1.26729     0.01016
 O    -1.71727    -1.36559     0.69355
 O    -0.27206    -2.18613    -0.66347
 C     2.19633    -1.25844     0.00681
 H     3.16111     1.24958     0.00515
 H    -0.58364     3.34882    -0.03727
 C    -2.21924     1.21633    -0.00412
 H     1.89091     3.37266    -0.01891
 H     3.26572    -1.09160     0.19397
 H     2.11403    -1.78241    -0.96420
 H     1.84502    -1.97573     0.76621
 H    -2.61538     0.86562     0.96783
 H    -2.64977     0.54330    -0.76368
 H    -2.64066     2.21435    -0.18257
