   25
 
 O     0.00000     0.00000     0.00000
 C     1.20467     0.00000     0.00000
 C     1.98893     1.28176     0.00000
 C     2.01171    -1.27468    -0.00059
 C     1.09743    -2.50293    -0.00031
 C     1.91719    -3.79753     0.00119
 C     0.98940    -5.01923     0.00089
 C     1.80155    -6.32114     0.00479
 C     0.87712    -7.53847     0.00355
 H     2.63774     1.35881     0.88093
 H     2.62201     1.36711    -0.89167
 H     1.31859     2.15538     0.00941
 H     2.68179    -1.29363    -0.88310
 H     2.68153    -1.29415     0.88235
 H     0.42126    -2.46962     0.87721
 H     0.42359    -2.47155    -0.87974
 H     2.58356    -3.82814    -0.88066
 H     2.58106    -3.82769     0.88507
 H     0.31970    -4.98759     0.88075
 H     0.32510    -4.99081    -0.88329
 H     2.47067    -6.35245    -0.87544
 H     2.46488    -6.35088     0.88958
 H     0.22550    -7.54749     0.88448
 H     0.23331    -7.55146    -0.88303
 H     1.44995    -8.47224     0.00810
