   22
 
 C     0.00000     0.00000     0.00000
 C     1.42866     0.00000     0.00000
 C     2.64038     0.02115     0.00000
 C     4.07277     0.07074     0.00464
 C     4.67182    -1.34448    -0.10688
 C     6.20314    -1.28661    -0.09932
 C     6.79783    -2.69744    -0.20624
 C     8.32542    -2.64700    -0.19942
 H    -0.41320    -0.09596    -1.02101
 H    -0.41366    -0.83582     0.59395
 H    -0.41121     0.93297     0.42779
 H     6.56499    -0.65937    -0.93533
 H     6.56146    -0.79521     0.82459
 H     8.75569    -3.65190    -0.27319
 H     6.43860    -3.18997    -1.12961
 H     6.43607    -3.32458     0.63054
 H     8.70781    -2.19256     0.72123
 H     8.71121    -2.06176    -1.04141
 H     4.30811    -1.83185    -1.03100
 H     4.30550    -1.97160     0.72768
 H     4.44332     0.56718     0.93263
 H     4.44420     0.70514    -0.83481
