    9
 
 O     0.00000     0.00000     0.00000
 C     1.20211     0.00000     0.00000
 C     1.96824     1.32014     0.00000
 C     1.66484     2.24213    -1.12775
 O     2.75998     1.54925     0.87521
 H     1.79847    -0.91774     0.00564
 H     1.89956     1.79597    -2.10444
 H     0.59184     2.50213    -1.14385
 H     2.23025     3.18439    -1.05162
