   18
 
 C     0.00000     0.00000     0.00000
 C     1.53804     0.00000     0.00000
 C     2.13823     1.41691     0.00000
 C     2.02500     2.11993    -1.36219
 C     0.69152     2.86635    -1.51530
 O    -0.34216     2.18541    -0.82250
 C    -0.44176     0.84710    -1.15503
 O    -0.82045     0.49194    -2.23371
 H    -0.39119     0.40930     0.95416
 H    -0.39621    -1.03031    -0.08984
 H     1.91383    -0.57080    -0.87205
 H     1.89525    -0.55051     0.89288
 H     3.20414     1.35516     0.29295
 H     1.64599     2.03094     0.78105
 H     2.14594     1.38400    -2.18044
 H     2.85913     2.83644    -1.48653
 H     0.39643     2.98881    -2.57251
 H     0.69311     3.84860    -1.00697
