   13
 
 C     0.00000     0.00000     0.00000
 C     1.53833     0.00000     0.00000
 C     1.97008     1.49174     0.00000
 N     0.71682     2.25683     0.00635
 C    -0.41199     1.45980     0.00667
 O    -1.53398     1.90787     0.01104
 H    -0.42177    -0.51814     0.87985
 H    -0.42139    -0.51003    -0.88487
 H     1.93797    -0.52615    -0.88168
 H     1.93794    -0.52542     0.88222
 H     2.57071     1.74179    -0.89908
 H     2.57892     1.73967     0.89398
 H     0.71186     3.25371     0.00833
