   22
 
 C     1.21712     0.00009    -0.73729
 C     2.23269     0.00017     0.21650
 C     1.92521     0.00013     1.57550
 C     0.59251     0.00018     1.98196
 C    -0.43305     0.00007     1.03877
 H     1.44830    -0.00002    -1.79279
 H     3.26463     0.00010    -0.10705
 H     2.71709    -0.00002     2.31124
 H     0.34571     0.00011     3.03493
 H    -1.46850    -0.00009     1.34757
 C    -0.11108    -0.00011    -0.31681
Br    -1.49376    -0.00175    -1.60646
 O    -3.78504     0.00087    -3.64162
 C    -4.94250     0.03047    -3.26253
 C    -5.26828     0.03076    -1.78486
 C    -6.07481     0.06757    -4.26610
 H    -5.94943     0.94412    -4.89933
 H    -5.99800    -0.80730    -4.90933
 H    -7.05630     0.09213    -3.80351
 H    -6.33437     0.05888    -1.58306
 H    -4.83429    -0.85896    -1.33161
 H    -4.78613     0.88988    -1.32138
