   18
 
 C    -0.00001     0.00000     0.00000
 O     0.58444     0.97497     0.47788
 N     0.64412    -1.08512    -0.46683
 H     1.66432    -1.12873    -0.43414
 H     0.12611    -1.85378    -0.84559
 C    -1.50698    -0.02418    -0.08544
 H    -1.91089     0.08237     0.91825
 H    -1.89969    -0.93154    -0.53673
 H    -1.83342     0.83642    -0.66372
 C     4.08934    -0.11629     0.15953
 O     3.50492    -1.09031    -0.32020
 N     3.44525     0.96845     0.62737
 H     2.42515     1.01289     0.59307
 H     3.96328     1.73641     1.00749
 C     5.59634    -0.09201     0.24475
 H     5.98821     0.80764     0.71194
 H     5.99990    -0.17955    -0.76103
 H     5.92412    -0.96258     0.80693
