   28
 
 C     0.00000     0.00000     0.00000
 C     1.39482     0.00000     0.00000
 C     2.09160     1.20809     0.00000
 C     1.39321     2.41587    -0.00007
 C    -0.00195     2.41542     0.00237
 C    -0.69860     1.20726     0.00236
 H    -0.54022    -0.93674    -0.00455
 H     1.93584    -0.93606     0.00424
 H     3.17279     1.20834     0.00359
 H     1.93347     3.35270    -0.00170
 H    -0.54324     3.35135     0.00779
 H    -1.77975     1.20669     0.00843
 H     0.73987     1.27859     2.23012
 N     0.76197     1.31494     3.23655
 C     1.34003     2.31587     3.97571
 C     1.18602     2.04618     5.31707
 C     0.47520     0.81341     5.41148
 C     0.22347     0.37951     4.07938
 C    -0.46053    -0.80601     3.79545
 C    -0.89658    -1.56424     4.87093
 C    -0.65853    -1.15405     6.19853
 C     0.01928     0.02074     6.47860
 H     1.81892     3.14723     3.48597
 H     1.54128     2.66062     6.12662
 H    -0.64215    -1.11895     2.77582
 H    -1.42936    -2.48774     4.68876
 H    -1.01411    -1.77224     7.01169
 H     0.19522     0.32383     7.50259
