   25
 
 C     1.03729     0.00054    -0.58210
 C    -0.17649    -0.00027     0.10272
 C    -0.18317    -0.00052     1.49813
 C     1.01988     0.00004     2.20517
 C     2.22862     0.00085     1.51151
 C     2.24175     0.00110     0.11827
 I    -2.00407    -0.00170     2.53438
 H     1.01316    -0.00014     3.28624
 H     3.15911     0.00128     2.06323
 H     3.18140     0.00172    -0.41642
 H     1.03828     0.00073    -1.66387
 H    -1.10930    -0.00069    -0.44373
 N    -4.58259    -0.00197     4.00462
 C    -5.43225     1.03310     3.44352
 C    -5.20206    -1.30609     3.85064
 C    -4.31061     0.26857     5.40494
 H    -5.22922     0.28365     6.01106
 H    -3.64704    -0.49733     5.80303
 H    -3.81738     1.23437     5.50158
 H    -6.40888     1.08751     3.94819
 H    -4.94083     2.00010     3.53709
 H    -5.60072     0.83453     2.38635
 H    -6.16683    -1.37221     4.37631
 H    -5.37006    -1.50861     2.79416
 H    -4.53989    -2.07444     4.24625
