   23
 
 C    -0.00001     0.00000     0.00000
 H     0.64736     0.85250     0.15644
 C     0.55024    -1.25470    -0.25498
 H     1.62428    -1.37603    -0.29886
 C    -0.28438    -2.35267    -0.46017
 H     0.14209    -3.32574    -0.66379
 C    -1.66787    -2.19468    -0.40818
 H    -2.31583    -3.04603    -0.56784
 C    -2.21824    -0.94020    -0.14785
 H    -3.29144    -0.81926    -0.09490
 C    -1.38405     0.15723     0.05399
 H    -1.81131     1.12949     0.25797
 N    -3.21719    -0.70203     3.33213
 C    -2.60230     0.45564     3.61219
 H    -3.24991     1.30881     3.77470
 C    -1.22009     0.59648     3.70236
 H    -0.78824     1.56014     3.93358
 C    -0.41914    -0.52050     3.48815
 H     0.65843    -0.45011     3.54298
 C    -1.03969    -1.72915     3.19449
 H    -0.46391    -2.62477     3.01041
 C    -2.43020    -1.76719     3.12904
 H    -2.93906    -2.69564     2.90020
