   17
 
 H     0.02211     0.33772     0.04431
 C     0.02692     0.29716     1.12779
 C     1.23242     0.37429     1.82321
 C     1.23851     0.31830     3.21564
 C     0.03945     0.18454     3.91326
 C    -1.16622     0.10711     3.21863
 C    -1.17298     0.16391     1.82551
 H     2.16553     0.47432     1.28031
 H     2.17663     0.37513     3.75618
 H     0.04472     0.13704     4.99638
 H    -2.09886    -0.00056     3.76095
 H    -2.11070     0.10160     1.28461
 I    -0.20532    -3.36852     1.88377
 C     0.06920    -5.47193     1.87275
 H     0.07360    -5.80564     0.83983
 H     1.01805    -5.68986     2.35292
 H    -0.75287    -5.92202     2.42041
