   18
 
 C     0.00000     0.00000     0.00000
 C     1.38000     0.00000     0.00000
 C     2.09909     1.20844     0.00000
 C     1.42632     2.41508     0.00033
 C     0.02034     2.45147     0.00081
 C    -0.69419     1.23271     0.00068
 N    -2.08204     1.24915     0.00161
 C    -2.82625     2.45416     0.00279
 C    -2.06127     3.69617     0.00262
 C    -0.71189     3.69171     0.00160
 H    -0.55420    -0.93501    -0.00032
 H     1.92642    -0.94447    -0.00022
 H     3.18612     1.18314    -0.00022
 H     1.98150     3.35381     0.00033
 O    -4.03430     2.34920     0.00400
 H    -2.65698     4.60815     0.00338
 H    -0.13831     4.62152     0.00145
 H    -2.59525     0.37168     0.00164
