   20
 
 C     0.00000     0.00000     0.00000
 C     1.53623     0.00000     0.00000
 C     2.08211     1.44805     0.00000
 C     1.67044     2.27261     1.21872
 C     2.05206    -0.77501     1.22197
 C     2.03539    -0.69764    -1.28003
 H    -0.39898     0.43623     0.92141
 H    -0.39870     0.57803    -0.83930
 H    -0.39681    -1.01705    -0.07879
 H     1.74239     1.95945    -0.92112
 H     3.18671     1.41492    -0.06439
 H     0.58180     2.37062     1.29130
 H     2.02499     1.81994     2.15117
 H     2.08830     3.28425     1.16465
 H     3.14474    -0.75040     1.27747
 H     1.66437    -0.35234     2.15455
 H     1.74496    -1.82484     1.18538
 H     1.68651    -0.18137    -2.17940
 H     3.12843    -0.73086    -1.31722
 H     1.67474    -1.72982    -1.33381
