   20
 
 C     0.00000     0.00000     0.00000
 C     1.39233     0.00000     0.00000
 C     2.07534     1.21422     0.00000
 C     1.33337     2.40570    -0.00042
 N    -0.02009     2.40880    -0.00104
 C    -0.66776     1.23317    -0.00097
 C     1.98968     3.73376     0.00015
 N     3.34311     3.73147     0.00089
 C     3.99007     4.90758     0.00136
 C     3.32175     6.14047     0.00093
 C     1.92945     6.13930    -0.00010
 C     1.24712     4.92487    -0.00049
 H    -0.56060    -0.92929    -0.00004
 H     1.94546    -0.93865    -0.00001
 H     3.16668     1.25212     0.00032
 H    -1.76219     1.29579    -0.00158
 H     5.08455     4.84541     0.00213
 H     1.37560     7.07761    -0.00065
 H     0.15578     4.88645    -0.00140
 H     3.88189     7.07000     0.00145
