   26
 
 C     0.00000     0.00000     0.00000
 C     1.52904     0.00000     0.00000
 C     2.07717     1.43326     0.00000
 C     3.60971     1.42366    -0.00152
 C     4.24492     2.83268     0.00044
 C     3.83058     3.61888    -1.25273
 C     3.83310     3.61406     1.25740
 C     5.77686     2.66426    -0.00057
 H    -0.40094     0.50993     0.88296
 H    -0.40074     0.50774    -0.88431
 H    -0.39594    -1.02148     0.00110
 H     1.90559    -0.55151     0.88223
 H     1.90537    -0.55026    -0.88314
 H     1.69411     1.97936    -0.88192
 H     1.69665     1.97869     0.88341
 H     3.97440     0.86149     0.87939
 H     3.97224     0.86512    -0.88569
 H     4.07090     3.06612    -2.16673
 H     2.75463     3.82172    -1.26165
 H     4.34541     4.58396    -1.30377
 H     2.75776     3.82003     1.26756
 H     4.07126     3.05591     2.16865
 H     4.35071     4.57746     1.31258
 H     6.11865     2.11375     0.88152
 H     6.11789     2.11981    -0.88674
 H     6.28166     3.63586     0.00224
