   29
 
 C     0.00617     0.03038    -0.02128
 C     1.33124    -0.74697    -0.22699
 C     2.45476     0.01220     0.52769
 C     3.84137    -0.49879     0.13472
 C     4.03561    -0.38544    -1.37827
 C     2.93331    -1.15514    -2.15281
 C     3.01255    -0.74463    -3.64509
 C     3.16845    -2.67413    -2.06213
 C     1.14906    -2.16363     0.34754
 N     1.56381    -0.82891    -1.68863
 H     0.06425     1.05079    -0.40935
 H    -0.81961    -0.47579    -0.53595
 H    -0.24913     0.09221     1.04026
 H     2.30251    -0.08956     1.61616
 H     2.38119     1.09324     0.30999
 H     3.97314    -1.54718     0.46239
 H     4.62260     0.07945     0.66300
 H     5.02769    -0.77252    -1.66847
 H     4.02147     0.67902    -1.67518
 H     2.24080    -1.26533    -4.22547
 H     2.86506     0.32965    -3.78334
 H     3.98492    -1.00535    -4.07239
 H     3.35307    -2.99746    -1.03386
 H     2.28492    -3.21822    -2.42013
 H     4.02686    -2.97967    -2.66654
 H     0.51000    -2.76157    -0.31519
 H     2.10179    -2.69197     0.44175
 H     0.68457    -2.13566     1.33660
 H     1.23358     0.02223    -2.14361
