   31
 
 O     0.00000     0.00000     0.00000
 C     1.20503     0.00000     0.00000
 C     1.97552     1.32853     0.00000
 C     2.86449     1.38265    -1.24759
 C     2.82010     1.41729     1.27501
 C     0.96963     2.48432    -0.03241
 C     2.00024    -1.28145    -0.03867
 C     1.51640    -2.33033     0.99240
 C     0.16715    -2.91920     0.56667
 C     1.39238    -1.68795     2.38205
 C     2.56349    -3.45933     1.05067
 H     2.27400     1.26949    -2.16445
 H     3.63182     0.60209    -1.24394
 H     3.38387     2.34617    -1.31463
 H     2.19521     1.33301     2.17261
 H     3.58179     0.63249     1.32522
 H     3.34171     2.38025     1.33125
 H     0.29626     2.44855     0.83355
 H     0.33051     2.43034    -0.92278
 H     1.47078     3.45609    -0.03298
 H     1.91735    -1.70803    -1.06024
 H     3.07739    -1.08652     0.11785
 H     0.23470    -3.42980    -0.39829
 H    -0.59752    -2.13484     0.46646
 H    -0.20223    -3.64045     1.30228
 H     2.32644    -1.21037     2.69061
 H     0.60225    -0.92681     2.39648
 H     1.13390    -2.43378     3.14086
 H     2.70924    -3.92051     0.06925
 H     3.53360    -3.09213     1.39794
 H     2.24795    -4.25047     1.73911
