   32
 
 C     0.00000     0.00000     0.00000
 C     1.36918     0.00000     0.00000
 C     2.07321     1.24164     0.00000
 C     1.35166     2.46271    -0.00050
 C    -0.06712     2.42403    -0.00132
 C    -0.72439     1.22090    -0.00115
 N     3.44511     1.21073     0.00079
 C     4.11397     2.35677     0.00138
 C     3.46304     3.63010     0.00095
 C     2.09458     3.67434    -0.00010
 C     5.59793     2.26435     0.00251
 C     6.24844     0.99079    -0.00199
 C     7.61687     0.94626    -0.00068
 C     8.36026     2.15758     0.00519
 C     7.63893     3.37873     0.00957
 N     6.26695     3.41020     0.00815
 C     8.34320     4.62013     0.01582
 C     9.71235     4.61994     0.01741
 C    10.43660     3.39890     0.01269
 C     9.77907     2.19587     0.00656
 H    -0.55587    -0.93707     0.00028
 H     1.95024    -0.92271     0.00023
 H    -0.61767     3.36352    -0.00214
 H    -1.81276     1.18127    -0.00187
 H     4.07539     4.53515     0.00161
 H     1.56040     4.62403    -0.00049
 H     5.63599     0.08589    -0.00627
 H     8.15066    -0.00366    -0.00398
 H     7.76207     5.54279     0.01923
 H    10.26858     5.55679     0.02234
 H    11.52501     3.43817     0.01399
 H    10.32933     1.25622     0.00283
