   26
 
 C     0.00000     0.00000     0.00000
 C     1.53457     0.00000     0.00000
 C     2.08651     1.44036     0.00000
 C     2.58272     1.94266    -1.37550
 C     3.78880     1.11647    -1.85045
 C     1.46690     1.87585    -2.42854
 C     3.02292     3.41153    -1.21346
 C     2.04506    -0.76393     1.23106
 H    -0.39893     0.47325     0.90354
 H    -0.39934     0.54676    -0.86005
 H    -0.39574    -1.01991    -0.04237
 H     1.89091    -0.53184    -0.91431
 H     1.31533     2.13353     0.38238
 H     2.92363     1.51835     0.71985
 H     4.58802     1.11247    -1.10259
 H     3.51473     0.07428    -2.04295
 H     4.20291     1.52190    -2.77952
 H     1.15813     0.84298    -2.61945
 H     0.58184     2.43267    -2.10453
 H     1.79551     2.29991    -3.38302
 H     2.19745     4.03824    -0.86183
 H     3.84139     3.50498    -0.49280
 H     3.37189     3.82738    -2.16397
 H     3.13695    -0.84527     1.22341
 H     1.75255    -0.26496     2.16069
 H     1.63987    -1.78083     1.26128
