   28
 
 N     0.00000     0.00000     0.00000
 C     1.49332     0.00000     0.00000
 C     2.01854     1.45122     0.00000
 C     1.28378     2.30785    -0.99393
 C    -0.21093     2.33382    -0.82642
 C    -0.81189     0.91305    -0.85848
 C     1.95494    -0.70331     1.28633
 C     2.02294    -0.76089    -1.22478
 C    -2.23335     0.95248    -0.27499
 C    -0.85887     0.38410    -2.29998
 O    -0.54634    -1.07546     0.32355
 O     1.84982     2.94776    -1.84101
 H     3.10798     1.45095    -0.21352
 H     1.91634     1.89878     1.01047
 H    -0.68347     2.95376    -1.61671
 H    -0.46044     2.83772     0.13048
 H     1.52430    -0.23438     2.17938
 H     1.61972    -1.75174     1.29989
 H     3.04424    -0.69481     1.38056
 H     1.51873    -1.73193    -1.32996
 H     1.87500    -0.20595    -2.15734
 H     3.09689    -0.96018    -1.13277
 H    -2.69931    -0.04390    -0.31886
 H    -2.22799     1.23928     0.78360
 H    -2.87361     1.65080    -0.82067
 H     0.09549     0.51234    -2.82207
 H    -1.10619    -0.68676    -2.31643
 H    -1.62341     0.90449    -2.88800
