   11
 
 O     0.00000     0.00000     0.00000
 C     1.44939     0.00000     0.00000
 C     1.89386     1.47877     0.00000
 C     0.57373     2.20340    -0.00004
 C    -0.42247     1.30411     0.00159
 H     1.73889    -0.55111    -0.90528
 H     1.73906    -0.55268     0.90430
 H     2.50067     1.73311    -0.88529
 H     2.50216     1.73283     0.88436
 H     0.51976     3.26920     0.00030
 H    -1.49245     1.37076     0.00187
