   21
 
 C    -0.01999     0.01952     0.01266
 C     1.50092     0.09903    -0.03906
 S    -0.72015     1.76436     0.04157
 C    -0.54715    -0.66628    -1.24757
 C    -0.54390    -0.68645     1.28767
 C    -0.13050    -2.16774     1.31682
 C    -0.05350    -0.02590     2.58270
 H     1.92042     0.66326     0.80478
 H     1.94412    -0.90545     0.00065
 H     1.86828     0.56816    -0.95914
 H    -0.31125     2.18302    -1.16183
 H    -1.64124    -0.75506    -1.24668
 H    -0.14634    -1.68530    -1.33965
 H    -0.26079    -0.14147    -2.16626
 H    -1.66454    -0.64984     1.27480
 H    -0.51895    -2.72073     0.45657
 H     0.95794    -2.28375     1.32857
 H    -0.51923    -2.65975     2.21627
 H     1.03931    -0.03271     2.65554
 H    -0.38178     1.01581     2.67650
 H    -0.44186    -0.55718     3.45940
