   17
 
 C     0.00000     0.00000     0.00000
 C     1.41042     0.00000     0.00000
 C     2.09168     1.19797     0.00000
 C     1.34642     2.38733     0.00073
 C    -0.04594     2.36521     0.00126
 C    -0.75609     1.15833     0.00034
 O    -0.54221    -1.25135    -0.00069
 C     0.55066    -2.20714     0.00094
 H     3.17783     1.22927    -0.00057
 H     1.86988     3.34024     0.00087
 H    -0.60011     3.30377     0.00187
 H    -1.83943     1.13135     0.00027
 H     0.39880    -2.81423    -0.90324
 H     0.39980    -2.81053     0.90782
 C     1.88209    -1.41847    -0.00106
 H     2.49909    -1.64965    -0.88714
 H     2.50254    -1.65051     0.88235
