   24
 
 C     0.00000     0.00000     0.00000
 C     1.52759     0.00000     0.00000
 C     2.07960     1.42411     0.00000
 O     2.00002    -0.69255     1.14658
 C     2.11902    -0.85927    -1.17528
 C     1.55159    -2.27414    -1.17828
 O     1.63843    -0.13600    -2.31643
 C     3.64311    -0.85790    -1.15918
 C     1.94822    -0.58023    -3.56313
 O     1.51900     0.05993    -4.48608
 H    -0.38697     0.27614    -0.99207
 H    -0.39950    -0.98975     0.24975
 H    -0.41092     0.71192     0.72202
 H     3.14611     1.43900     0.25301
 H     1.96186     1.88622    -0.99128
 H     1.56354     2.06403     0.72232
 H     1.69576    -0.26044     1.96459
 H     1.60926    -2.70444    -0.16502
 H     0.49574    -2.28425    -1.47599
 H     2.09492    -2.94943    -1.84462
 H     4.04794     0.12095    -1.44495
 H     4.00953    -1.07895    -0.14325
 H     4.07626    -1.60760    -1.82681
 H     2.55880    -1.47807    -3.63224
