   21
 
 C     0.13936    -0.10159     0.16088
 C     1.51082    -0.00487    -0.13277
 C     2.10714     1.26648    -0.15817
 C     1.33100     2.40245     0.08470
 C    -0.03044     2.29711     0.35740
 C    -0.62694     1.04318     0.39973
 C    -0.51169    -1.41648     0.22605
 O    -1.81262    -1.31309     0.62533
 O    -0.06217    -2.51046    -0.01122
 C     2.28772    -1.24211    -0.41113
 C     3.55844     1.47929    -0.43610
 H     1.79744     3.38765     0.05940
 H    -0.62259     3.19138     0.53818
 H    -1.69467     0.95349     0.61917
 H    -2.26826    -2.18912     0.67893
 H     1.84977    -1.81073    -1.25192
 H     3.34026    -1.06478    -0.66191
 H     2.27089    -1.93222     0.45073
 H     4.12032     0.54758    -0.58823
 H     4.04953     2.00688     0.39538
 H     3.70380     2.08734    -1.34167
