   19
 
 O     0.00000     0.00000     0.00000
 C     1.35943     0.00000     0.00000
 C     2.12650     1.17157     0.00000
 C     3.52195     1.03704     0.00366
 C     4.10625    -0.23174     0.00556
 C     3.31486    -1.37990     0.00502
 C     1.93016    -1.27680     0.00251
 C     1.48551     2.51557    -0.00895
 C     4.39678     2.24589     0.00117
 H    -0.37641     0.91553    -0.00092
 H     5.18860    -0.32785     0.00749
 H     3.78529    -2.36258     0.00638
 H     1.28935    -2.15408     0.00203
 H     1.73993     3.08422     0.89971
 H     1.82453     3.11206    -0.87120
 H     0.38896     2.48195    -0.06583
 H     4.31642     2.78804    -0.95335
 H     4.12274     2.94763     0.80225
 H     5.45815     2.00014     0.14135
