   12
 
Cl     0.00000     0.00000     0.00000
 C     1.68251     0.00000     0.00000
 C     2.30766     1.35015     0.00000
 C     3.79549     1.34198     0.00048
 C     4.51281     0.21322     0.00195
 C     3.88732    -1.13679     0.00329
 C     2.39953    -1.12893     0.00134
 O     1.66327     2.36419    -0.00061
 O     4.53108    -2.15124     0.00653
Cl     4.50979     2.86548    -0.00062
Cl     6.19526     0.21204     0.00214
Cl     1.68482    -2.65219     0.00037
