   27
 
 C     0.01727     0.01109     0.00429
 C     1.41473     0.01744     0.06313
 C     2.07339     1.25245     0.08961
 C     1.32149     2.42841     0.05315
 C    -0.07298     2.41409    -0.00958
 C    -0.74251     1.18509    -0.03694
 C    -0.68753    -1.28531     0.00671
 O    -0.87208    -1.73451    -1.26525
 O    -1.08529    -1.93226     0.94014
 C    -0.77847     3.72860    -0.04644
 C    -2.22680     1.06579    -0.10661
 C     3.55823     1.38370     0.15441
 C     2.13100    -1.28981     0.09423
 H     1.83988     3.38756     0.07478
 H    -1.34281    -2.60219    -1.31056
 H    -1.87209     3.63786    -0.08239
 H    -0.48097     4.31436    -0.92899
 H    -0.54065     4.33139     0.84281
 H    -2.62234     0.50518     0.75721
 H    -2.53827     0.52992    -1.01830
 H    -2.74579     2.03325    -0.11684
 H     3.86679     1.95164     1.04473
 H     3.94708     1.91614    -0.72665
 H     4.08180     0.41932     0.19755
 H     1.91973    -1.87813    -0.81353
 H     1.81753    -1.89605     0.96013
 H     3.22259    -1.19175     0.15901
