   26
 
 C     0.00000     0.00000     0.00000
 C     1.52875     0.00000     0.00000
 C     2.16792     1.41414     0.00000
 C     3.71853     1.23800    -0.08551
 C     4.16760     0.67368    -1.44100
 C     4.47765     2.54757     0.17125
 C     1.63610     2.24230    -1.17673
 C     1.80990     2.12420     1.31791
 H    -0.40861     0.56969     0.84141
 H    -0.40068     0.43787    -0.92102
 H    -0.38924    -1.02170     0.07436
 H     1.89543    -0.55840     0.88212
 H     1.88500    -0.56388    -0.88388
 H     4.01131     0.50983     0.71093
 H     3.62260    -0.23670    -1.70931
 H     4.01250     1.40027    -2.24605
 H     5.23401     0.42390    -1.42551
 H     4.14698     3.34432    -0.50279
 H     4.34249     2.89955     1.19881
 H     5.55383     2.41191     0.01570
 H     2.19435     3.17681    -1.29217
 H     1.70986     1.69094    -2.11943
 H     0.58333     2.50656    -1.03172
 H     2.26071     1.62048     2.17825
 H     2.15155     3.16417     1.31768
 H     0.72686     2.14575     1.47807
