   18
 
 C     0.39514    -0.40629    -0.10835
 C     1.41420     0.43648    -0.80433
 C     1.96838     1.61452    -0.03472
 C     3.43026     1.35582     0.29453
 C     4.41018     1.52477    -0.83070
 C     5.80621     1.07005    -0.42135
 O     1.79073     0.20434    -1.92523
 O     3.74398     1.03415     1.41051
 H    -0.50700     0.16891     0.14016
 H     0.79079    -0.81769     0.83326
 H     0.08197    -1.25813    -0.73240
 H     4.05925     0.95251    -1.72153
 H     4.42800     2.58392    -1.16002
 H     6.52278     1.17539    -1.24295
 H     1.86374     2.53663    -0.64102
 H     1.39974     1.79956     0.89918
 H     5.80881     0.01710    -0.10939
 H     6.18127     1.64926     0.43336
