   26
 
 C     0.00000     0.00000     0.00000
 C     1.52929     0.00000     0.00000
 C     2.10506     1.43157     0.00000
 C     3.60792     1.37371     0.33547
 C     4.19332     2.74984     0.70513
 C     3.71127     3.20377     2.08818
 C     5.72663     2.67721     0.68801
 C     1.88160     2.09919    -1.36240
 H    -0.40050     0.54061     0.86449
 H    -0.40246     0.47409    -0.90176
 H    -0.39440    -1.02133     0.03737
 H     1.89419    -0.55052     0.88818
 H     1.90822    -0.55811    -0.87585
 H     1.57923     2.02428     0.78526
 H     3.78035     0.67047     1.17172
 H     4.15869     0.95267    -0.52614
 H     3.86265     3.49868    -0.05423
 H     2.61834     3.26278     2.13149
 H     4.03280     2.50962     2.87179
 H     4.10530     4.19401     2.33954
 H     6.10013     1.93872     1.40500
 H     6.10167     2.39889    -0.30237
 H     6.17078     3.64369     0.94878
 H     2.28844     3.11597    -1.38046
 H     2.36358     1.53703    -2.16877
 H     0.81473     2.17093    -1.59910
