   20
 
 C     0.00000     0.00000     0.00000
 C     1.39116     0.00000     0.00000
 C     2.07818     1.21320     0.00000
 C     1.34514     2.41109    -0.00017
 N    -0.00997     2.40790    -0.00025
 C    -0.66246     1.23620    -0.00012
 C     1.99190     3.73866    -0.00080
 C     1.21367     4.90156     0.00943
 C     1.85403     6.14571     0.00851
 N     3.19388     6.27334    -0.00211
 C     3.94090     5.15476    -0.01250
 C     3.38400     3.86977    -0.01242
 H    -0.56299    -0.92805     0.00015
 H     1.94326    -0.94005     0.00013
 H     3.16481     1.22272     0.00051
 H    -1.75736     1.30439    -0.00011
 H     0.12331     4.83710     0.01786
 H     1.28547     7.08279     0.01650
 H     5.02624     5.30719    -0.02118
 H     4.03702     3.00233    -0.02152
