   19
 
 O     0.00000     0.00000     0.00000
 C     1.36123     0.00000     0.00000
 C     2.13436     1.16533     0.00000
 C     3.52469     1.02708    -0.00070
 C     4.11950    -0.23352    -0.00157
 C     3.32009    -1.38335    -0.00136
 C     1.93696    -1.27523    -0.00046
 C     1.52562     2.52419     0.00033
 H     4.14787     1.91965    -0.00064
 H    -0.37134     0.91660     0.00011
 C     5.60466    -0.37180    -0.00316
 H     3.78701    -2.36667    -0.00203
 H     1.29570    -2.15359    -0.00025
 H     1.83906     3.09955     0.88593
 H     1.83748     3.09875    -0.88647
 H     0.42754     2.51677     0.00027
 H     5.95466    -0.92819     0.87879
 H     5.95330    -0.91642    -0.89299
 H     6.12173     0.59642     0.00304
