   21
 
 C     0.00000     0.00000     0.00000
 C     1.39982     0.00000     0.00000
 C     2.10375     1.19644     0.00000
 C     1.40997     2.41145    -0.00045
 C     0.01481     2.41498    -0.00060
 C    -0.70295     1.21625    -0.00014
 C    -0.72774    -1.27005     0.00004
 O     0.12076    -2.33937     0.00190
 O    -1.91797    -1.46927    -0.00135
 C    -2.18851     1.25212    -0.00053
 C     2.14990     3.70472    -0.00094
 H     1.94332    -0.95011     0.00006
 H     3.19057     1.18802     0.00019
 H    -0.52043     3.36190    -0.00096
 H    -0.35471    -3.20609     0.00189
 H    -2.60471     0.72693    -0.87888
 H    -2.60068     2.26818     0.00115
 H    -2.60564     0.72368     0.87543
 H     1.90149     4.30689    -0.88839
 H     3.24057     3.57517     0.00327
 H     1.89517     4.31169     0.88141
