   25
 
 C     0.03166    -0.00686     0.08708
 C     1.44311     0.03627     0.10268
 C     2.06307     1.32022    -0.00245
 C     1.31604     2.48745    -0.02985
 C    -0.08139     2.40428     0.02337
 C    -0.72317     1.16856     0.07954
 O     2.32930    -0.93416     0.22319
 N     3.51521     1.43719    -0.06097
 H     1.81628     3.47372    -0.08454
 N    -0.86857     3.62677     0.00719
 H    -1.82758     1.11921     0.11066
 N    -0.72973    -1.24414     0.02318
 O    -1.64350    -1.38459     0.81460
 O    -0.43496    -2.05034    -0.84069
 O     4.15031     0.56551    -0.61771
 O     4.00240     2.43433     0.44536
 O    -2.08080     3.52163     0.06798
 O    -0.27001     4.68480    -0.06842
 C     2.03249    -2.26634     0.67060
 H     1.36515    -2.78097    -0.04050
 H     3.05878    -2.69187     0.55981
 C     1.55858    -2.26931     2.10353
 H     2.21651    -1.67425     2.75366
 H     0.53947    -1.88203     2.22906
 H     1.55165    -3.29318     2.51064
