   22
 
 C     0.00000     0.00000     0.00000
 C     1.39428     0.00000     0.00000
 C     2.10164     1.20314     0.00000
 C     1.39866     2.42230     0.00045
 C    -0.01496     2.42171     0.00009
 C    -0.69981     1.21061    -0.00003
 N     2.00124     3.71562     0.00092
 O     3.19008     3.80161     0.00212
 H    -1.40789    -1.36330    -0.88338
 H    -1.40485    -1.36437     0.88578
 H    -0.10273    -2.16685    -0.00029
 C    -0.75642    -1.28374     0.00007
 H     1.93486    -0.94360    -0.00015
 C     3.58791     1.17003     0.00005
 C    -0.77608     3.70157    -0.00112
 H    -1.78699     1.20169    -0.00036
 H     4.00133     1.68731     0.88326
 H     3.99813     0.15165    -0.00111
 H     4.00200     1.68981    -0.88125
 H    -0.52780     4.31000    -0.88732
 H    -0.51389     4.32154     0.87295
 H    -1.86323     3.55899     0.00818
