   26
 
 C    -0.00206     0.00702     0.00449
 C     1.37827     0.07116    -0.20227
 C     2.03225     1.30050    -0.10730
 C     1.30971     2.45841     0.18152
 C    -0.07251     2.39034     0.37148
 C    -0.73408     1.16628     0.27839
 C    -0.69925    -1.30064    -0.08409
 C    -0.86603    -2.05169     1.20757
 O    -1.10601    -1.74527    -1.12789
 C     2.15012    -1.16289    -0.52589
 C    -2.21326     1.09901     0.45367
 C     2.00254     3.77542     0.28216
 H     3.10615     1.35499    -0.26355
 H    -0.59065    -1.45591     2.08549
 H    -0.24248    -2.95768     1.20656
 H    -1.90492    -2.38910     1.33247
 H     3.20639    -0.95808    -0.74603
 H     2.12568    -1.88217     0.30492
 H     1.73233    -1.67073    -1.41157
 H    -2.70459     0.80583    -0.48998
 H    -2.50340     0.35831     1.21286
 H    -2.65002     2.05995     0.75716
 H     1.62998     4.47837    -0.47805
 H     1.83672     4.24076     1.26500
 H     3.08887     3.69737     0.14245
 H    -0.63273     3.29587     0.58732
