   22
 
 C    -0.01822     0.00257     0.05507
 C     1.39281     0.02721     0.10248
 C     2.04357     1.27338    -0.15364
 C     1.31688     2.43835    -0.35268
 C    -0.08250     2.38546    -0.32563
 C    -0.75006     1.17871    -0.12724
 O     2.25240    -0.92986     0.41477
 N     3.49896     1.35967    -0.19492
 H     1.83419     3.40250    -0.52446
 N    -0.84947     3.60659    -0.51762
 H    -1.85645     1.15267    -0.11913
 N    -0.80509    -1.21682     0.14754
 O    -0.47968    -2.16061    -0.55046
 O    -1.76709    -1.20960     0.89226
 O     3.99073     2.43466     0.10475
 O     4.13457     0.38402    -0.53832
 O    -2.06442     3.52248    -0.48501
 O    -0.23268     4.64030    -0.70109
 C     1.83678    -2.21546     0.87384
 H     1.08479    -2.15642     1.66352
 H     1.51002    -2.83342     0.02536
 H     2.79059    -2.60274     1.27447
