   14
 
 C     0.00000     0.00000     0.00000
 C     1.41454     0.00000     0.00000
 C     2.15129     1.17247     0.00000
 C     1.47514     2.38814    -0.00040
 C     0.08527     2.44856    -0.00078
 C    -0.63355     1.26506    -0.00022
 N    -0.71924    -1.16369     0.00048
Br     2.34967    -1.64330    -0.00000
Br    -2.52172     1.36547    -0.00049
Br     2.46854     3.99682    -0.00055
 H     3.24638     1.14344     0.00020
 H    -0.43117     3.41465    -0.00110
 H    -1.71698    -1.16820     0.00028
 H    -0.27710    -2.05814     0.00050
