   22
 
 C     0.00000     0.00000     0.00000
 C     1.40593     0.00000     0.00000
 C     2.08252     1.22155     0.00000
 C     1.38253     2.42552    -0.00036
 C    -0.01497     2.41684    -0.00043
 C    -0.71639     1.21579    -0.00017
 C    -2.20609     1.21649    -0.00068
 C     2.20363    -1.25860     0.00029
 C     2.10949     3.72747    -0.00083
 N    -0.69886    -1.19517     0.00016
 C    -1.30066    -2.21028     0.00028
 H     3.17123     1.22624     0.00016
 H    -0.55828     3.36002    -0.00075
 H    -2.60580     0.70504    -0.89048
 H    -2.60715     0.68916     0.87919
 H    -2.63065     2.22935     0.00821
 H     2.85711    -1.31344    -0.88427
 H     2.85050    -1.31729     0.88945
 H     1.58780    -2.16810    -0.00431
 H     1.85180     4.32616    -0.88740
 H     1.85077     4.32765     0.88442
 H     3.20066     3.60571    -0.00018
