   19
 
 C     0.00000     0.00000     0.00000
 C     1.48929     0.00000     0.00000
 C     2.18397     1.21358     0.00000
 C     3.57398     1.23407     0.00045
 C     4.29916     0.04038     0.00099
 C     3.64029    -1.18420     0.00085
 C     2.23403    -1.18165    -0.00048
 C     4.37125    -2.47885     0.00164
 O     1.67067    -2.42119    -0.00066
 H    -0.39692     0.52139     0.88555
 H    -0.39642     0.51934    -0.88710
 H    -0.44262    -1.00505     0.00003
 H     1.62703     2.14883    -0.00025
 H     4.10224     2.18451     0.00031
 H     5.38722     0.06982     0.00141
 H     4.10784    -3.08015     0.88710
 H     4.09718    -3.08732    -0.87566
 H     5.46076    -2.35574    -0.00543
 H     0.68185    -2.37641    -0.00066
