   28
 
 C     0.29515     0.44867    -0.22212
 C     1.28418    -0.24163     0.72333
 C     2.07099     0.80191     1.53890
 C     1.13812     1.55053     2.45895
 C     1.11717     3.05678     2.36022
 C     1.44078     3.68010     3.73127
 C     2.88116     3.35524     4.14140
 C     1.23791     5.19810     3.66979
 C     2.26051    -1.11367    -0.07315
 O     0.43496     0.96600     3.24546
 H     0.79969     1.13477    -0.90947
 H    -0.45363     1.02256     0.33590
 H    -0.24586    -0.28550    -0.82981
 H     0.71275    -0.88911     1.43637
 H     2.84125     0.29153     2.15411
 H     2.62395     1.47839     0.86440
 H     1.81590     3.43496     1.59401
 H     0.10601     3.37569     2.03248
 H     0.74012     3.24800     4.49075
 H     3.02692     2.27528     4.25868
 H     3.60433     3.71453     3.40245
 H     3.13285     3.82143     5.10074
 H     1.89020     5.66395     2.92412
 H     0.20396     5.45488     3.41616
 H     1.46216     5.66377     4.63610
 H     2.86141    -0.51737    -0.76813
 H     2.95067    -1.64893     0.58778
 H     1.72517    -1.86490    -0.66432
