   23
 
 C     0.00000     0.00000     0.00000
 C     1.36812     0.00000     0.00000
 C     2.09736     1.22268     0.00000
 C     1.43208     2.42461     0.00041
 C     0.01460     2.45768     0.00063
 C    -0.70719     1.23906     0.00042
 N    -2.08192     1.20491     0.00011
 C    -2.74955     2.34787     0.00005
 C    -2.09753     3.62383     0.00076
 C    -0.73008     3.67019     0.00135
 C    -4.24160     2.28195    -0.00140
 C     3.58681     1.16174    -0.00103
 H    -0.58042    -0.92353     0.00005
 H     1.92231    -0.93785     0.00002
 H     1.97551     3.36728     0.00051
 H    -2.70259     4.52497     0.00087
 H    -0.19432     4.61903     0.00209
 H    -4.66407     2.78165     0.88169
 H    -4.66084     2.76246    -0.89666
 H    -4.60458     1.23986     0.00902
 H     3.96476     0.62310     0.88086
 H     3.96348     0.63562    -0.89100
 H     4.05378     2.15562     0.00582
