   20
 
 C     0.00000     0.00000     0.00000
 C     1.39025     0.00000     0.00000
 C     2.10470     1.20102     0.00000
 C     1.39370     2.41989    -0.00205
 C    -0.01741     2.42354    -0.00066
 C    -0.69756     1.20274    -0.00029
 H    -0.54497    -0.94532     0.00041
 N     2.11702     3.67619    -0.00550
 O     1.48986     4.72570    -0.00357
 O     3.33952     3.66100    -0.01080
 H     1.92783    -0.94715     0.00054
 C     3.58848     1.12170     0.00153
 C    -0.83074     3.66696    -0.00055
 H    -1.78673     1.19253     0.00064
 H     4.02594     1.62152    -0.88225
 H     3.96760     0.09120     0.00809
 H     4.02579     1.63290     0.87871
 H    -0.61384     4.29709    -0.88300
 H    -0.61050     4.30143     0.87752
 H    -1.91234     3.47867     0.00152
