   24
 
 C     0.00000     0.00000     0.00000
 C     1.53788     0.00000     0.00000
 C     2.11852     1.41948     0.00000
 C     1.48524     2.28670    -1.03425
 C     0.28457     2.03157    -1.56918
 C    -0.51194     0.84336    -1.16918
 C    -0.50958    -1.43618    -0.15318
 C    -0.56938     0.62234     1.28057
 O    -1.54344     0.56296    -1.73024
 C    -0.35188     2.89645    -2.59650
 H     1.91251    -0.56449     0.87403
 H     1.90639    -0.54787    -0.89050
 H     1.98588     1.88481     1.00198
 H     3.21682     1.37086    -0.15224
 H     2.06500     3.16244    -1.32546
 H    -1.60454    -1.45594    -0.25684
 H    -0.10602    -1.91353    -1.05366
 H    -0.24130    -2.05407     0.70859
 H    -1.66683     0.58817     1.28163
 H    -0.27489     1.67244     1.38888
 H    -0.22261     0.08555     2.16993
 H    -0.56698     2.32356    -3.51454
 H    -1.32428     3.27920    -2.24578
 H     0.26291     3.75864    -2.87961
