   30
 
 C     0.01093    -0.01191    -0.00019
 C     1.38786     0.01680    -0.00125
 C     2.07669     1.24841    -0.02407
 C     1.36029     2.42821    -0.04576
 C    -0.05147     2.41040    -0.04491
 C    -0.74242     1.18377    -0.02237
 C    -2.18858     1.18434    -0.02196
 C    -2.87872     2.41141    -0.04510
 C    -2.14253     3.64659    -0.06779
 C    -0.78679     3.64610    -0.06793
 C    -4.29043     2.43028    -0.04555
 C    -5.00751     1.25095    -0.02391
 C    -4.31962     0.01882    -0.00056
 C    -2.94271    -0.01093     0.00016
 H    -0.50557    -0.97114     0.01753
 H     1.95736    -0.91036     0.01576
 C     3.56739     1.24445    -0.02511
 H     1.87434     3.38653    -0.06351
 H    -2.70852     4.57697    -0.08515
 H    -0.22018     4.57613    -0.08507
 H    -4.80391     3.38892    -0.06354
 C    -6.49820     1.24815    -0.02446
 H    -4.88988    -0.90782     0.01669
 H    -2.42692    -0.97051     0.01832
 H     3.99746     2.25479    -0.03850
 H     3.96336     0.71471    -0.90397
 H     3.96489     0.73776     0.86695
 H    -6.92752     2.25864    -0.04644
 H    -6.89575     0.74942     0.87187
 H    -6.89499     0.71131    -0.89875
