   23
 
 C     0.00000     0.00000     0.00000
 C     1.37261     0.00000     0.00000
 C     2.09004     1.22941     0.00000
 C     1.42507     2.42710     0.00043
 C     0.00659     2.45978     0.00059
 C    -0.70808     1.23527     0.00003
 N    -2.08381     1.19927    -0.00024
 C    -2.75458     2.34080     0.00025
 C    -2.10849     3.61920     0.00176
 C    -0.74081     3.66895     0.00219
 C    -4.24639     2.26717    -0.00160
 C     2.14414    -1.27529     0.00021
 H    -0.58030    -0.92244     0.00038
 H     1.97077     3.36999     0.00058
 H    -2.71587     4.51820     0.00264
 H    -0.20795     4.61971     0.00362
 H    -4.67152     2.76482     0.88137
 H    -4.66749     2.74593    -0.89697
 H    -4.60391     1.22307     0.00841
 H     2.79153    -1.35003    -0.88631
 H     2.79286    -1.34917     0.88585
 H     1.49675    -2.16323     0.00117
 H     3.17784     1.19793    -0.00036
