  101
 
 C    -2.99700     2.28200    -1.32100
 C    -5.08600     2.10900    -0.09000
 C    -4.42000     2.18100     1.09100
 C    -2.98800     2.28300     1.03300
 C     1.16900     2.37500     1.01800
 C     1.17400     2.41300    -1.46300
 C     3.12600     2.36500    -0.40600
 C     2.58800     2.37400     0.88800
 C     4.69800     2.28700     1.15700
 N    -4.40300     2.16600    -1.26600
 N    -2.33000     2.34200    -0.14000
 N    -2.25700     2.32100     2.15300
 N     0.53700     2.40100    -0.24200
 N     2.49800     2.38800    -1.59700
 N     3.58700     2.32600     1.84900
 N     4.48700     2.32000    -0.21400
 N     0.39600     2.47100    -2.56600
 O    -2.45400     2.31100    -2.43600
 O     0.48200     2.34000     2.05900
 H    -4.87100     2.03900    -2.15600
 H    -6.16000     1.98700    -0.15800
 H    -4.95000     2.11800     2.03200
 H    -2.70900     2.17100     3.04400
 H    -1.21200     2.33100     2.11200
 H    -0.50900     2.39000    -0.22200
 H     5.69500     2.22400     1.56900
 H     5.17900     2.21400    -0.94500
 H     0.87000     2.33000    -3.44700
 H    -0.63000     2.38300    -2.52900
 C     6.16300    -0.98100     1.03500
 C     5.79100    -0.98100     2.34900
 C     4.41200    -0.94900     2.73600
 C     3.41800    -0.94200     1.70900
 C     3.80400    -0.95400     0.34100
 C     5.18900    -0.94700    -0.01700
 C     2.81400    -0.90900    -0.67500
 C     5.54600    -0.89300    -1.37100
 C     4.58300    -0.83400    -2.38900
 C     3.19600    -0.85300    -2.04000
 C     4.93500    -0.75300    -3.77700
 C     3.98100    -0.69600    -4.75100
 C     2.58300    -0.72800    -4.43300
 C     2.20300    -0.81800    -3.05700
 C     0.82700    -0.85000    -2.70900
 C     0.44300    -0.91700    -1.33900
 C     1.43200    -0.91200    -0.32400
 C     2.04300    -0.93200     2.06100
 C     1.04900    -0.92900     1.04200
 C    -0.32500    -0.94700     1.39100
 C    -1.31500    -0.97300     0.37700
 C    -0.93200    -0.93900    -0.98800
 C    -0.16600    -0.82700    -3.72300
 C    -1.54300    -0.88100    -3.37300
 C    -1.92600    -0.95600    -2.00900
 C     1.58800    -0.68400    -5.41800
 C     0.22400    -0.73800    -5.09600
 C    -2.54600    -0.86500    -4.39200
 C    -3.89600    -0.93600    -4.02600
 C    -4.29500    -1.01700    -2.68600
 C    -3.30100    -1.01000    -1.65700
 C    -2.69600    -1.03100     0.72800
 C    -3.68500    -1.07500    -0.28900
 C    -0.80400    -0.71600    -6.09600
 C    -2.12500    -0.78000    -5.76000
 C    -5.06900    -1.14300     0.07000
 C    -6.04200    -1.16300    -0.98200
 C    -5.67300    -1.09500    -2.29700
 C    -5.42600    -1.16000     1.42500
 C    -4.46600    -1.08600     2.44400
 C    -3.07900    -1.02400     2.09500
 C    -2.08600    -0.96500     3.11200
 C    -0.71100    -0.91900     2.76200
 C     0.28100    -0.88500     3.77600
 C     1.65800    -0.88700     3.42500
 C     2.66000    -0.86900     4.44400
 C     4.01200    -0.90800     4.07700
 C     2.23800    -0.81600     5.81300
 C    -0.11100    -0.84100     5.15100
 C     0.91600    -0.79900     6.15100
 C    -2.46900    -0.91900     4.49000
 C    -1.47500    -0.85000     5.47600
 C    -4.82000    -1.04500     3.83300
 C    -3.86700    -0.95800     4.80800
 H     7.21600    -0.99900     0.76300
 H     6.54700    -0.99700     3.13100
 H     6.60100    -0.89000    -1.64100
 H     5.98900    -0.73700    -4.04100
 H     4.27000    -0.63000    -5.79800
 H     1.88100    -0.61600    -6.46400
 H    -4.65600    -0.93300    -4.80500
 H    -0.50700    -0.65000    -7.14000
 H    -2.88800    -0.76500    -6.53500
 H    -7.09400    -1.23000    -0.71200
 H    -6.43000    -1.11200    -3.07800
 H    -6.48000    -1.21000     1.69300
 H     4.77100    -0.89700     4.85600
 H     3.00200    -0.78800     6.58700
 H     0.61800    -0.75800     7.19600
 H    -1.76900    -0.81500     6.52300
 H    -5.87300    -1.08700     4.09900
 H    -4.15800    -0.92600     5.85600
