   20
 
 C     0.00000     0.00000     0.00000
 C     1.33889     0.00000     0.00000
 C    -0.58013     1.39081     0.00000
 C    -1.24774     1.72048     1.31001
 C    -0.57866     2.64413     2.01154
 C     0.66958     3.11358     1.30975
 C     1.91718     2.64276     2.01179
 C     2.58649     1.71975     1.30968
 C     1.91899     1.39080    -0.00058
 C     0.66952     2.33417    -0.04879
 H    -0.65502    -0.85167     0.01000
 H     1.99381    -0.85179     0.00997
 H    -1.26060     1.55102    -0.85915
 H    -2.15653     1.21868     1.58730
 H    -0.83295     3.04612     2.97501
 H     0.67044     4.21147     1.16392
 H     2.17067     3.04346     2.97609
 H     3.49489     1.21727     1.58694
 H     2.59945     1.55150    -0.85959
 H     0.66954     2.99617    -0.91945
