   15
 
 O     0.00000     0.00000     0.00000
 C     1.20827     0.00000     0.00000
 C     1.97407     1.26281     0.00000
 C     3.31508     1.27708     0.00211
 C     4.07773     2.49252     0.00198
 C     3.79765     3.83836    -0.00072
 C     5.06224     4.52208     0.00086
 C     6.02674     3.54918     0.00433
 O     5.45859     2.29805     0.00561
 H     1.76606    -0.94572     0.00000
 H     1.37053     2.17155    -0.00169
 H     3.90599     0.35171     0.00420
 H     2.83720     4.31196    -0.00353
 H     5.19048     5.58433    -0.00050
 H     7.09267     3.53085     0.00655
