    8
 
 N     0.00000     0.00000     0.00000
 N     1.24398     0.00000     0.00000
 C     0.62259     1.35644     0.00000
 C     0.62208     2.23967     1.19401
Br     0.61906     2.23104    -1.69780
 H     1.48758     2.92527     1.20036
 H     0.66775     1.67045     2.13808
 H    -0.28915     2.86113     1.24482
