   10
 
 C     0.00000     0.00000     0.00000
 C     1.33177     0.00000     0.00000
 C     3.55094     1.02351     0.00000
 N     4.69103     0.83098    -0.00372
 C     2.12781     1.27258     0.00421
 H    -0.60958     0.89023     0.00323
 H    -0.59129    -0.90451    -0.00314
 H     1.91352    -0.92193    -0.00326
 H     1.84607     1.90280    -0.87962
 H     1.84922     1.89387     0.89525
