   17
 
 C     0.00000     0.00000     0.00000
 C     1.40990     0.00000     0.00000
 C     2.10334     1.20178     0.00000
 C     1.42841     2.42858     0.00909
 C     0.03704     2.39256     0.01407
 C    -0.70008     1.22114     0.01007
 N    -0.69765    -1.19967    -0.07423
Cl    -0.83611     3.86891     0.02586
 C     2.17943     3.71289     0.01107
 H     1.95167    -0.94091    -0.01051
 H     3.19391     1.19237    -0.00514
 H    -1.78624     1.23537     0.00634
 H    -1.67793    -1.20285     0.11181
 H    -0.21934    -2.05155     0.12666
 H     1.93976     4.32298    -0.87441
 H     3.26751     3.56484     0.01155
 H     1.93890     4.32189     0.89692
