   19
 
 C     0.00000     0.00000     0.00000
 C     1.53124     0.00000     0.00000
 C     2.03660     1.41117     0.00000
 C     2.27040     2.06385    -1.20727
 C     2.72568     3.38498    -1.16894
 C     2.95322     4.06852     0.02619
 C     2.71042     3.39242     1.22092
 C     2.25756     2.07660     1.21275
 O     2.93118     3.95784    -2.38448
 H    -0.39878     0.51893     0.87980
 H    -0.39765     0.50987    -0.88619
 H    -0.39750    -1.02034     0.00469
 H     1.91112    -0.55707     0.88030
 H     1.90984    -0.55588    -0.88218
 H     2.10623     1.57548    -2.16321
 H     3.30645     5.09198     0.03004
 H     2.87859     3.90151     2.16992
 H     2.07085     1.56190     2.15087
 H     3.25276     4.88770    -2.30935
