   26
 
 C     0.00000     0.00000     0.00000
 C     1.52950     0.00000     0.00000
 C     2.19583     1.39646     0.00000
 C     2.47634     1.87830     1.45091
 C     1.24676     1.96762     2.35224
 C     3.59302     1.28075    -0.68074
 C     3.54277     1.00577    -2.18336
 C     1.35647     2.44591    -0.73693
 H    -0.40867     0.56467     0.84396
 H    -0.40369     0.43873    -0.91882
 H    -0.38738    -1.02279     0.07177
 H     1.89601    -0.57268     0.87389
 H     1.87320    -0.57004    -0.88656
 H     3.21795     1.20275     1.91921
 H     2.96209     2.87274     1.40528
 H     0.46479     2.59481     1.91075
 H     0.81497     0.97806     2.54056
 H     1.50559     2.40215     3.32447
 H     4.15680     2.21712    -0.50600
 H     4.17138     0.48202    -0.17929
 H     2.97460     0.09732    -2.41272
 H     3.07548     1.83197    -2.73021
 H     4.55176     0.87199    -2.58966
 H     1.90399     3.38841    -0.84251
 H     1.08161     2.10413    -1.74051
 H     0.42713     2.66652    -0.20089
