   25
 
 C    -0.01272    -0.01106     0.00091
 C     1.33755     0.01654    -0.36300
 C     1.98477     1.26280    -0.37663
 C     1.34208     2.45816    -0.05170
 C    -0.00121     2.40360     0.30100
 C    -0.66849     1.18274     0.32689
 C    -1.29991    -1.55018     1.48217
 C    -1.95803    -1.25273    -0.94445
 C     2.12162    -1.19523    -0.73678
 O     3.29576     1.41056    -0.70880
 H    -0.46937    -1.54910     2.19807
 H    -1.71970     1.15636     0.60550
 H     1.89119     3.39498    -0.07953
 C    -0.79523    -1.30028     0.05510
 H    -2.00926    -0.77996     1.80392
 H    -1.80679    -2.51796     1.55817
 H    -1.59634    -1.02248    -1.95377
 H    -2.69464    -0.48640    -0.67879
 H    -2.48242    -2.21283    -0.98610
 H     1.52327    -2.11908    -0.70568
 H     2.51111    -1.12168    -1.76368
 H     2.96621    -1.35678    -0.04972
 H    -0.13769    -2.16380    -0.22877
 H     3.73220     0.55533    -0.93326
 H    -0.53142     3.31943     0.55822
