   24
 
 C    -0.02902     0.00484    -0.09871
 C     1.33924    -0.01712    -0.37310
 C     2.02683     1.18644    -0.50287
 C     1.35174     2.39755    -0.36107
 C    -0.01763     2.42073    -0.08313
 C    -0.70786     1.21543     0.05138
 C    -0.80106    -1.23776     0.03892
 O    -1.98324    -1.36134     0.23920
 O    -0.01348    -2.34112    -0.08899
 C    -0.72342     3.74002     0.08875
 C    -1.03060     3.95708     1.57660
 C    -2.00676     3.79195    -0.74906
 H     1.86319    -0.96889    -0.48382
 H     3.09448     1.18070    -0.71562
 H     1.90052     3.33270    -0.46695
 H    -1.77870     1.21151     0.27418
 H    -0.51692    -3.18739     0.00131
 H    -0.05429     4.56986    -0.25671
 H    -0.11457     3.93336     2.17801
 H    -1.69841     3.18049     1.96736
 H    -1.51425     4.92473     1.74465
 H    -2.76805     3.09613    -0.37770
 H    -1.80661     3.53230    -1.79544
 H    -2.44786     4.79423    -0.73346
