   18
 
 C     0.00000     0.00000     0.00000
 C     1.48947     0.00000     0.00000
 C     2.23774     1.11444     0.00000
 C     1.60371     2.47446    -0.00046
 C     2.57658     3.65283    -0.00158
 C     3.72769     1.02523    -0.00034
 H    -0.40404     0.51280     0.88516
 H    -0.40365     0.51191    -0.88593
 H    -0.41239    -1.01745     0.00004
 H     1.94520    -0.98670     0.00007
 H     0.93124     2.55606    -0.88371
 H     0.93240     2.55757     0.88353
 H     3.22278     3.64390     0.88314
 H     3.22165     3.64280    -0.88708
 H     2.03505     4.60609    -0.00173
 H     4.15444     1.51169    -0.88940
 H     4.15592     1.51903     0.88387
 H     4.08977    -0.01144     0.00332
