   26
 
 C     0.00000     0.00000     0.00000
 C     1.52921     0.00000     0.00000
 C     2.07635     1.43379     0.00000
 C     3.60991     1.42712    -0.00506
 C     4.18597     2.85660     0.03973
 C     5.68495     2.79444     0.39856
 C     6.23148     4.16370     0.80290
 C     3.98253     3.56188    -1.30618
 H    -0.40043     0.51430     0.88054
 H    -0.40017     0.50388    -0.88667
 H    -0.39642    -1.02112     0.00580
 H     1.90632    -0.55156     0.88162
 H     1.90619    -0.54902    -0.88341
 H     1.69093     1.98226    -0.87927
 H     1.70062     1.98089     0.88456
 H     3.97599     0.84712     0.86325
 H     3.98484     0.89758    -0.89978
 H     3.65273     3.43073     0.83459
 H     5.84047     2.07845     1.22845
 H     6.25885     2.39220    -0.45632
 H     6.17747     4.87895    -0.02515
 H     5.66994     4.58764     1.64254
 H     7.28135     4.09499     1.10843
 H     4.37111     4.58561    -1.28039
 H     4.49342     3.03365    -2.11774
 H     2.92087     3.62219    -1.56839
