   14
 
 N     0.00000     0.00000     0.00000
 C     1.34295     0.00000     0.00000
 C     2.10443     1.18298     0.00000
 C     1.42480     2.40160     0.00052
 C     0.03120     2.40753     0.00080
 C    -0.64545     1.18208     0.00047
 C     3.58897     1.11320    -0.00079
 H     1.97628     3.34035     0.00070
 H    -0.52092     3.34263     0.00121
 H    -1.73935     1.12650     0.00046
 H     3.96744     0.57978     0.88527
 H     3.96632     0.57826    -0.88638
 H     4.06255     2.10486    -0.00180
 H     1.81982    -0.98623    -0.00015
