   25
 
 C     0.01004    -0.00152     0.00376
 C     1.38104    -0.03801     0.27009
 C     2.01344     1.15573     0.61525
 C     1.33497     2.37386     0.70470
 C    -0.03174     2.38753     0.43696
 C    -0.68888     1.20287     0.08680
 C    -0.77368     4.22164     1.95007
 C    -0.28007     4.68869    -0.48615
 H    -1.75420     1.22135    -0.12252
 C    -0.69844    -1.25982    -0.36928
 O     3.34421     1.21282     0.88911
 H    -1.13391     3.48005     2.67251
 H     1.93202    -0.96718     0.21004
 H     1.87417     3.27555     0.97872
 C    -0.82410     3.66812     0.52071
 H     0.24692     4.49272     2.24314
 H    -1.39618     5.11678     2.04953
 H     0.75325     4.97191    -0.25613
 H    -0.28717     4.28065    -1.50391
 H    -0.88214     5.60289    -0.48732
 H    -0.60788    -2.01819     0.42248
 H    -0.27864    -1.69503    -1.28836
 H    -1.77130    -1.10702    -0.54706
 H    -1.89583     3.46312     0.26453
 H     3.77657     0.32859     0.81544
