   25
 
 C     0.00435     0.01216     0.01707
 C     1.33018    -0.04147    -0.43732
 C     1.94809     1.17766    -0.75165
 C     1.29931     2.41291    -0.63801
 C    -0.01322     2.43093    -0.18952
 C    -0.65572     1.23839     0.13693
 C     2.50079    -1.59074    -2.02695
 C     3.23847    -1.42421     0.40249
 C    -0.74424    -1.22661     0.38933
 O     3.22821     1.28569    -1.19101
 H     1.65753    -1.45131    -2.71610
 H    -1.68317     1.26462     0.48955
 H     1.83061     3.32362    -0.89972
 C     2.05724    -1.35056    -0.57606
 H     3.29469    -0.91078    -2.35390
 H     2.87369    -2.61246    -2.15966
 H     2.88536    -1.31429     1.43635
 H     3.98085    -0.63635     0.23939
 H     3.75438    -2.38731     0.32704
 H    -0.24112    -1.76692     1.20527
 H    -1.76709    -1.01602     0.73115
 H    -0.83356    -1.91424    -0.46477
 H     1.36485    -2.19386    -0.31118
 H     3.67863     0.40629    -1.28373
 H    -0.54171     3.37867    -0.09143
