   17
 
 C     0.00000     0.00000     0.00000
 C     1.39370     0.00000     0.00000
 C     2.07042     1.22871     0.00000
 C     1.37096     2.42713    -0.00005
 C    -0.02702     2.43450    -0.00004
 C    -0.70726     1.22321     0.00039
 C     2.17726    -1.26669     0.00030
 O    -0.76720    -1.12119     0.00101
 O    -2.06212     1.13315     0.00016
 H     3.15813     1.23596    -0.00004
 H     1.91081     3.37236    -0.00027
 H    -0.56897     3.37468    -0.00036
 H     2.83025    -1.32906     0.88545
 H     2.82716    -1.33070    -0.88714
 H     1.55559    -2.17241     0.00114
 H    -0.20478    -1.93941     0.00209
 H    -2.47996     2.03089    -0.00042
