   37
 
 C    -0.00378    -0.00549     0.01105
 C     1.53986    -0.04301     0.04561
 C     2.08404     1.40298     0.01204
 C     1.62032     2.08676    -1.29372
 C     0.07518     2.12562    -1.32438
 C    -0.46976     0.67720    -1.29336
 H    -0.39922    -1.04413     0.04731
 C    -0.53063     0.78026     1.22509
 C     2.06380    -0.82277    -1.17153
 H     1.87686    -0.54224     0.98002
 H     3.19510     1.38000     0.04258
 C     1.55339     2.18522     1.22575
 H     2.01506     3.12554    -1.32678
 C     2.14944     1.29810    -2.50447
 H    -0.26259     2.62705    -2.25781
 C    -0.44954     2.90665    -0.10834
 H    -1.58062     0.69974    -1.31785
 C     0.05458    -0.07084    -2.53804
 C     0.01468     2.21931     1.18883
 H    -1.63438     0.79022     1.22123
 H    -0.22825     0.28066     2.16113
 C     1.59696    -0.14088    -2.46901
 H     1.70894    -1.86722    -1.13735
 H     3.16663    -0.87264    -1.14555
 H     1.95800     3.21211     1.22336
 H     1.90248     1.71708     2.16247
 H     1.85742     1.79853    -3.44352
 H     3.25309     1.28196    -2.49447
 H    -0.08657     3.94844    -0.13924
 H    -1.55171     2.96108    -0.13774
 H    -0.22440     0.52531    -3.44268
 C    -0.57881    -1.45623    -2.68312
 H    -0.36645     2.78468     2.06726
 H     1.98016    -0.70982    -3.34458
 H    -0.22353    -1.95873    -3.58929
 H    -0.34264    -2.10594    -1.83369
 H    -1.67012    -1.38525    -2.74729
