   25
 
 C    -0.00541     0.00091    -0.04848
 C     1.38137     0.64024    -0.11877
 C     2.16473     0.38372     1.17531
 C     3.56763     0.99451     1.09282
 C     4.34318     0.73724     2.38766
 C     5.74197     1.29870     2.30342
 C     6.69168     0.83333     3.38296
 C     7.92129     1.73137     3.45810
 O     6.07845     2.05680     1.43111
 H     0.06013    -1.08413     0.09025
 H    -0.59197     0.40485     0.78391
 H    -0.57296     0.18067    -0.96831
 H     1.28823     1.72863    -0.29643
 H     1.93862     0.23878    -0.98635
 H     1.61482     0.80627     2.03685
 H     2.23286    -0.70381     1.36259
 H     4.12209     0.57800     0.22955
 H     3.50993     2.08430     0.89826
 H     3.81598     1.20104     3.24633
 H     4.37490    -0.34784     2.60585
 H     6.17844     0.79819     4.36323
 H     6.99404    -0.21183     3.16339
 H     8.40728     1.81983     2.47517
 H     7.65557     2.75029     3.76626
 H     8.66121     1.34578     4.16648
