   14
 
 O     0.00000     0.00000     0.00000
 C     1.21004     0.00000     0.00000
 C     1.99069     1.24982     0.00000
 C     1.37163     2.43891     0.00090
 C     2.10331     3.73148     0.00002
 C     1.98581    -1.28590     0.00030
 H     3.07068     1.14930    -0.00076
 H     0.27696     2.50335     0.00190
 H     2.75968     3.82547     0.87953
 H     2.74896     3.82963    -0.88695
 H     1.43013     4.59979     0.00621
 H     2.63494    -1.36148    -0.88132
 H     2.61994    -1.36924     0.89218
 H     1.31202    -2.15625    -0.00868
