   18
 
 C     0.00000     0.00000     0.00000
 C     1.36647     0.00000     0.00000
 C     1.73540     1.40843     0.00000
 N     0.61782     2.13997     0.00032
 O    -0.46286     1.29722    -0.00039
 C     3.07596     1.97257     0.00012
 C     4.19590     1.13382     0.00290
 C     5.47627     1.68074     0.00304
 C     5.64696     3.06444     0.00056
 C     4.53387     3.90337    -0.00216
 C     3.25161     3.36182    -0.00242
 H    -0.75960    -0.74827     0.00020
 H     2.04587    -0.82312     0.00001
 H     4.07155     0.05240     0.00513
 H     6.34503     1.02495     0.00507
 H     6.64918     3.48910     0.00067
 H     4.66521     4.98417    -0.00404
 H     2.37836     4.01865    -0.00452
