    9
 
 O    -0.82259     0.13075    -0.00467
 H     0.15132     0.23695    -0.00521
 C    -1.09450    -1.17159    -0.00024
 F    -2.40836    -1.34805     0.00236
 F    -0.59097    -1.81205    -1.07439
 F    -0.58753    -1.80532     1.07632
 O     1.90289     0.32132    -0.00589
 H     2.35757    -0.04982    -0.76582
 H     2.35758    -0.05079     0.75357
