   18
 
 N    -0.00001     0.00000     0.00000
 H    -0.00236    -1.01061     0.01586
 C    -1.25795     0.61821    -0.02994
 O    -2.27636    -0.05247    -0.03979
 C    -1.18595     2.06813    -0.04619
 H    -2.10188     2.63154    -0.08874
 C     0.01567     2.67792    -0.00026
 H     0.12123     3.75256    -0.00208
 N     1.18539     1.97036     0.05788
 H     2.07458     2.43685     0.12173
 C     1.24405     0.58825     0.08181
 O     2.28726    -0.03111     0.16022
 C     0.77687     1.00513     3.36423
 H     1.29399     0.13415     2.98700
 H     1.38248     1.79213     3.79154
 C    -0.55191     1.10573     3.31498
 H    -1.16391     0.31825     2.89808
 H    -1.06373     1.97680     3.69898
