    9
 
 O    -0.77807     0.20594    -0.00374
 H     0.20462     0.30615    -0.00525
 C    -1.06467    -1.09987    -0.00004
Cl    -2.81815    -1.28807     0.00234
Cl    -0.38855    -1.94614    -1.44742
Cl    -0.38546    -1.93861     1.45030
 O     1.94979     0.37774    -0.00723
 H     2.32004    -0.08232    -0.76548
 H     2.32105    -0.07914     0.75249
