   17
 
 N    -0.00001     0.00000     0.00000
 C    -0.70204    -1.14001    -0.03938
 H    -0.12267    -2.05473    -0.00558
 C    -2.09111    -1.19288    -0.12480
 H    -2.59548    -2.14833    -0.15677
 C    -2.80301     0.00037    -0.17228
 H    -3.88209     0.00049    -0.24063
 C    -2.09079     1.19341    -0.12494
 H    -2.59490     2.14898    -0.15699
 C    -0.70174     1.14019    -0.03957
 H    -0.12213     2.05474    -0.00596
 C    -1.36179     0.66667     3.35581
 H    -0.45131     1.22616     3.19669
 H    -2.27134     1.22908     3.51277
 C    -1.36146    -0.66602     3.35594
 H    -0.45072    -1.22510     3.19693
 H    -2.27074    -1.22884     3.51303
