   34
 
 C    -0.00001     0.00000     0.00000
 H    -0.03033    -0.68220    -0.84957
 H    -0.03368    -0.60100     0.90858
 H    -0.90113     0.61084    -0.02905
 C     1.26141     0.85253    -0.03879
 H     1.26227     1.55145     0.80117
 H     1.26667     1.46277    -0.94498
 C     2.53316     0.01646     0.00645
 H     2.53314    -0.59235     0.91549
 H     2.53293    -0.68584    -0.83255
 C     3.80519     0.85226    -0.03909
 H     3.80427     1.55151     0.80056
 H     3.79994     1.46206    -0.94554
 C     5.06670    -0.00006     0.00013
 H     5.09722    -0.68290    -0.84893
 H     5.96761     0.61113    -0.02955
 H     5.10086    -0.60033     0.90918
 C     5.06686     0.58990     3.79995
 H     5.10144     1.18971     2.89062
 H     5.09736     1.27311     4.64870
 H     5.96754    -0.02160     3.83016
 C     3.80503    -0.26199     3.83926
 H     3.79959    -0.87172     4.74575
 H     3.80390    -0.96134     2.99967
 C     2.53326     0.57411     3.79364
 H     2.53310     1.27642     4.63262
 H     2.53333     1.18289     2.88457
 C     1.26149    -0.26203     3.83891
 H     1.26688    -0.87214     4.74516
 H     1.26260    -0.96105     2.99905
 C    -0.00023     0.59002     3.79993
 H    -0.03442     1.19055     2.89106
 H    -0.90103    -0.02128     3.82945
 H    -0.03077     1.27260     4.64919
