    8
 
 I     0.49436     0.00014    -0.29919
 H    -0.02682     0.00001     1.22778
 O    -0.30403    -0.00021     3.24054
 H    -1.06167     0.00003     3.83020
 C     0.87761    -0.00003     4.03350
 H     1.71562    -0.00013     3.34328
 H     0.94684     0.88889     4.66026
 H     0.94689    -0.88872     4.66058
