   22
 
 C     0.00000     0.00000     0.00000
 C     1.39343     0.00000     0.00000
 C     2.10308     1.19746     0.00000
 C     1.42785     2.42510     0.00008
 C     0.03573     2.45005     0.00341
 C    -0.65191     1.23369     0.00177
 O    -2.00765     1.33959     0.00299
 C     2.03134     4.40661     1.36793
 C     1.79399     4.62227    -1.13802
 H     3.18929     1.17810     0.00054
 H    -0.55480    -0.92969    -0.00100
 H     1.93165    -0.94762    -0.00013
 C     2.22085     3.70714     0.01561
 H    -0.51950     3.38375     0.00763
 H    -2.45078     0.45836     0.00203
 H     2.32988     3.75322     2.19596
 H     0.98461     4.68579     1.53495
 H     2.63215     5.31999     1.42840
 H     0.77560     5.00280    -1.00152
 H     1.82014     4.08811    -2.09489
 H     2.45923     5.48846    -1.22104
 H     3.30928     3.47384    -0.11131
