   26
 
 C     0.00000     0.00000     0.00000
 C     1.52999     0.00000     0.00000
 C     2.07182     1.43432     0.00000
 C     3.61938     1.53109    -0.00045
 C     3.96692     3.04340    -0.00116
 C     5.46527     3.34579     0.00091
 C     4.19247     0.85931     1.25519
 C     4.19110     0.85537    -1.25475
 H    -0.40112     0.50898     0.88327
 H    -0.40091     0.50787    -0.88401
 H    -0.39482    -1.02186     0.00055
 H     1.90267    -0.55265     0.88284
 H     1.90261    -0.55135    -0.88363
 H     1.67579     1.97142    -0.88274
 H     1.67592     1.97117     0.88307
 H     3.50093     3.51849    -0.88578
 H     3.49884     3.52031     0.88134
 H     5.95967     2.93538     0.88798
 H     5.96375     2.92741    -0.88003
 H     5.64551     4.42673    -0.00287
 H     5.28492     0.93188     1.28261
 H     3.80381     1.32285     2.16737
 H     3.94184    -0.20599     1.28964
 H     3.79967     1.31472    -2.16801
 H     5.28319     0.93205    -1.28616
 H     3.94290    -0.21050    -1.28447
