   29
 
 C    -0.06303     0.03178     0.03108
 C     1.46559     0.01555     0.03852
 C     2.12174     1.41867     0.07846
 C     3.65322     1.24124     0.22787
 C     4.32602     0.54753    -0.95667
 C     1.59933     2.24934     1.27685
 C     1.79464     1.58474     2.63970
 C     1.76922     2.16401    -1.23286
 C     2.43650     3.53090    -1.38797
 H     5.40470     0.45037    -0.79008
 H     4.18683     1.11038    -1.88657
 H     3.92681    -0.45981    -1.11693
 H     3.86157     0.66612     1.15093
 H     4.11826     2.23311     0.38591
 H     1.82308    -0.57549     0.90351
 H     1.82746    -0.52562    -0.85728
 H    -0.46271    -0.98855     0.01716
 H    -0.45994     0.55098    -0.84729
 H    -0.46660     0.52979     0.91978
 H     1.36543     2.20008     3.43825
 H     2.85484     1.43922     2.87207
 H     1.30786     0.60406     2.68448
 H     0.52423     2.46556     1.12445
 H     2.10256     3.23567     1.27927
 H     2.17989     3.97807    -2.35528
 H     3.52862     3.45727    -1.33945
 H     2.11631     4.23015    -0.60869
 H     0.67080     2.28949    -1.29241
 H     2.04122     1.52495    -2.09537
