   44
 
 C     0.00000     0.00000     0.00000
 C     1.53097     0.00000     0.00000
 C     2.23686     1.37921     0.00000
 C     2.07910     2.15491    -1.38930
 C     3.10456     3.33027    -1.53239
 C     2.93247     4.54103    -0.61626
 C     0.65752     2.73000    -1.56301
 C     0.46654     3.59460    -2.81482
 C     2.43937     1.19830    -2.57731
 C     1.30633     0.38756    -3.20955
 C     3.76876     1.15838     0.23157
 C     4.20175    -0.05961     1.05083
 C     1.66983     2.22897     1.16626
 C     1.76874     1.59297     2.55509
 H    -0.40851     0.69673     0.73967
 H    -0.41434     0.27427    -0.97687
 H    -0.38333    -0.99702     0.24579
 H     1.84917    -0.55257     0.90940
 H     1.90538    -0.60464    -0.84625
 H     3.04865     3.69416    -2.58113
 H     4.13522     2.94541    -1.42694
 H     3.32617     4.34997     0.38937
 H     1.88256     4.83727    -0.51749
 H     3.47751     5.40570    -1.01345
 H    -0.07359     1.89920    -1.58632
 H     0.38292     3.33689    -0.67879
 H     0.89547     3.12458    -3.70593
 H     0.94017     4.57596    -2.70184
 H    -0.59766     3.76436    -3.00960
 H     3.23335     0.50028    -2.24687
 H     2.90311     1.79504    -3.38984
 H     0.51033     1.02917    -3.60225
 H     0.84563    -0.30879    -2.50178
 H     1.68616    -0.20876    -4.04758
 H     4.27883     1.08094    -0.75035
 H     4.17562     2.07052     0.71101
 H     3.69145    -0.11397     2.01800
 H     4.00953    -0.99692     0.51731
 H     5.27862    -0.01838     1.25418
 H     2.19113     3.20356     1.20051
 H     0.60645     2.46602     0.96772
 H     1.25056     0.62940     2.60057
 H     2.81157     1.43078     2.84847
 H     1.31538     2.24463     3.31049
