   28
 
 C    -0.01047     0.00464    -0.01159
 C     1.50889    -0.24410     0.04767
 C     2.28990     1.11306    -0.02271
 C     1.81927     1.88424    -1.26219
 C     0.87487     3.04390    -1.10921
 C     1.88802    -1.16192    -1.12609
 C     1.82885    -0.98556     1.35825
 C     3.80114     0.89271    -0.19654
 C     2.07984     1.94633     1.24815
 O     2.21424     1.57952    -2.36153
 H    -0.31377     0.43351    -0.97285
 H    -0.34979     0.67270     0.78460
 H    -0.56135    -0.93666     0.10330
 H     0.01621     2.80041    -0.47353
 H     1.38532     3.90973    -0.66780
 H     0.48801     3.36332    -2.08915
 H     1.78373    -0.65275    -2.09363
 H     2.92440    -1.50679    -1.05438
 H     1.25026    -2.05108    -1.15660
 H     1.44593    -0.45189     2.23313
 H     2.90696    -1.11964     1.49234
 H     1.37448    -1.98240     1.36260
 H     4.21203     0.25853     0.59460
 H     4.02924     0.41688    -1.16140
 H     4.34556     1.84359    -0.17705
 H     1.02071     2.07670     1.49114
 H     2.55323     1.46822     2.11466
 H     2.52878     2.94156     1.15429
