   25
 
 C     0.06338    -0.06779    -0.15879
 C     1.37437     0.12206     0.54652
 C     2.11464     1.45991     0.42302
 C     3.62618     1.13769     0.25741
 C     3.88404     0.27882    -0.98741
 C     1.58316     2.31614    -0.72616
 C     1.85458     2.17804     1.75809
 C     4.49354     2.39940     0.19358
 O     1.83004    -0.76009     1.23266
 H    -0.64803     0.73039     0.08466
 H     0.19625    -0.07917    -1.24828
 H    -0.40070    -1.02545     0.12367
 H     3.93394     0.54336     1.15838
 H     3.35199    -0.67866    -0.93149
 H     3.57818     0.78480    -1.90717
 H     4.95083     0.04410    -1.08317
 H     2.14770     3.25410    -0.80772
 H     1.66806     1.80453    -1.69093
 H     0.53293     2.59068    -0.58097
 H     2.26204     1.60747     2.60339
 H     2.31834     3.17032     1.77394
 H     0.78318     2.31686     1.93936
 H     4.29679     2.98523    -0.70999
 H     4.32821     3.04943     1.05864
 H     5.55793     2.13694     0.18321
