   19
 
 C     0.00000     0.00000     0.00000
 C     1.49268     0.00000     0.00000
 C     2.13003     1.24743     0.00000
 C     3.52019     1.29548    -0.00016
 C     4.30754     0.13892    -0.00036
 C     3.65781    -1.08581    -0.00073
 C     2.25724    -1.17135    -0.00063
 C     1.65949    -2.53928    -0.00126
 O     4.21049     2.46770    -0.00022
 H    -0.39620     0.52337     0.88301
 H    -0.39557     0.51095    -0.89060
 H    -0.43696    -1.00744     0.00649
 H     1.54281     2.15852     0.00024
 H     5.39062     0.21615    -0.00009
 H     4.24727    -2.00331    -0.00085
 H     1.96655    -3.10588    -0.89266
 H     1.97924    -3.11265     0.88137
 H     0.56189    -2.53565     0.00750
 H     3.61122     3.25119    -0.00020
