   22
 
 C     0.00000     0.00000     0.00000
 C     1.48895     0.00000     0.00000
 C     2.24059     1.10811     0.00000
 C     3.73466     1.05803     0.00219
 C     1.67759     2.46900     0.01087
 C     1.43357     3.17510    -1.10046
 C     1.68392     2.67618    -2.48031
 C     1.40883     3.01524     1.37626
 H    -0.39218    -0.28923     0.98582
 H    -0.42252     0.98641    -0.24083
 H    -0.40087    -0.71036    -0.73607
 H     1.94057    -0.99051     0.00590
 H     4.14216     1.51419     0.91601
 H     4.14619     1.61839    -0.85076
 H     4.12593     0.03501    -0.05656
 H     1.02998     4.18497    -1.04833
 H     1.86371     1.59167    -2.51135
 H     2.56439     3.16592    -2.92109
 H     0.82955     2.87939    -3.14082
 H     0.73874     2.34834     1.93940
 H     2.33957     3.10219     1.95540
 H     0.94219     4.00759     1.35325
