   21
 
 C     0.00000     0.00000     0.00000
 C     1.39473     0.00000     0.00000
 C     2.07864     1.21189     0.00000
 C     1.38071     2.42237    -0.00198
 C    -0.02406     2.41921    -0.00589
 C    -0.70752     1.20494    -0.00356
 C    -0.77024    -1.24871     0.00299
 O     0.03815    -2.34535     0.00857
 O    -1.96807    -1.38616     0.00119
 C    -0.79305     3.69599    -0.01614
 C     2.13623     3.70679    -0.00703
 H     1.94480    -0.94392     0.00082
 H     3.16702     1.21354     0.00082
 H    -1.80113     1.18539    -0.00503
 H    -0.46592    -3.19599     0.01101
 H    -0.56256     4.29424    -0.91069
 H    -0.55787     4.31689     0.86102
 H    -1.88067     3.53746    -0.01089
 H     1.93659     4.28113    -0.92524
 H     3.22372     3.56469     0.05120
 H     1.85171     4.34683     0.84196
