   26
 
 C     0.00000     0.00000     0.00000
 C     1.52969     0.00000     0.00000
 C     2.10808     1.43137     0.00000
 C     3.61822     1.41122     0.35995
 C     4.20906     2.83732     0.34611
 C     5.73873     2.82288     0.33135
 C     3.83767     0.79582     1.75071
 C     1.88481     2.06188    -1.38243
 H    -0.39975     0.54972     0.85939
 H    -0.40746     0.46367    -0.90477
 H    -0.39327    -1.02137     0.04970
 H     1.88462    -0.55702     0.88759
 H     1.91078    -0.55646    -0.87595
 H     1.57152     2.03664     0.76679
 H     4.15124     0.79430    -0.39952
 H     3.85035     3.39107    -0.54228
 H     3.84082     3.40359     1.22087
 H     6.14982     2.35814     1.23385
 H     6.12422     2.26768    -0.53086
 H     6.14084     3.84049     0.27509
 H     3.21201     1.28053     2.50699
 H     3.60670    -0.27415     1.76262
 H     4.88083     0.90090     2.06865
 H     2.10696     3.13372    -1.38142
 H     2.51278     1.58758    -2.14366
 H     0.84238     1.95413    -1.70286
