   22
 
 C     0.00000     0.00000     0.00000
 C     1.49005     0.00000     0.00000
 C     2.25801     1.10365     0.00000
 C     1.65673     2.47508     0.00007
 C     3.73083     1.02907    -0.00101
 C     4.50088     2.13148     0.00550
 C     5.99068     2.12833     0.00368
 C     4.33173    -0.34260    -0.01111
 H    -0.40410     0.50842     0.88754
 H    -0.40386     0.51128    -0.88603
 H    -0.40956    -1.01850    -0.00185
 H     1.92496    -0.99838    -0.00002
 H     1.96717     3.04254    -0.88904
 H     1.96531     3.04186     0.89027
 H     0.55982     2.46167    -0.00125
 H     4.06458     3.12916     0.01266
 H     6.39213     1.62822    -0.88977
 H     6.39473     1.60681     0.88365
 H     6.40255     3.14585     0.01555
 H     4.02003    -0.91741     0.87278
 H     4.02388    -0.90190    -0.90623
 H     5.42862    -0.32972    -0.00836
