   26
 
 C     0.00000     0.00000     0.00000
 C     1.54402     0.00000     0.00000
 C     2.08995     1.42992     0.00000
 C     1.50133     2.24543    -1.17112
 N     0.05203     1.97321    -1.37835
 N    -0.56690     1.04372    -0.89815
 C    -0.52659    -1.34497    -0.52301
 C    -0.55126     0.27745     1.40691
 C     2.21094     1.90489    -2.49074
 C     1.61561     3.74886    -0.87805
 H     1.92356    -0.54851    -0.88305
 H     1.92205    -0.55531     0.87722
 H     3.19303     1.41920    -0.06304
 H     1.85390     1.92313     0.96237
 H    -0.19613    -1.53704    -1.55021
 H    -1.62530    -1.35571    -0.53660
 H    -0.18764    -2.17342     0.10618
 H    -1.64546     0.37688     1.38710
 H    -0.15009     1.20776     1.82315
 H    -0.30234    -0.53654     2.09525
 H     2.19133     0.82928    -2.69563
 H     1.72402     2.40600    -3.33882
 H     3.25717     2.22631    -2.46959
 H     1.19280     4.34072    -1.70172
 H     1.06321     4.02793     0.02659
 H     2.66002     4.04755    -0.74736
