   14
 
 O     0.00000     0.00000     0.00000
 N     1.37741     0.00000     0.00000
 C     1.80142     1.26149     0.00000
 C     0.65417     2.15026    -0.00014
 C    -0.43194     1.31557    -0.00062
 C     3.22222     1.65745    -0.00004
 C    -1.88511     1.49172    -0.00103
 H     0.69490     3.21462     0.00005
 H     3.46938     2.25863    -0.88986
 H     3.46844     2.26307     0.88702
 H     3.89721     0.78444     0.00241
 H    -2.35435     1.02482     0.88341
 H    -2.35310     1.02989    -0.88870
 H    -2.17124     2.55608     0.00276
