   27
 
 C     0.28399    -0.18194    -0.18895
 C     1.76143     0.18062    -0.09757
 O     1.89652     1.58678    -0.00592
 C     2.21883     2.28913    -1.17153
 O     1.10661     2.46594    -2.00589
 C     0.89495     1.57844    -3.07032
 O     1.56299     2.01086    -4.22121
 C     2.89427     1.62907    -4.43857
 O     2.97570     0.27941    -4.80532
 C     3.33768    -0.65515    -3.80832
 C     4.79279    -0.49184    -3.38685
 H     0.13677    -1.24565    -0.39399
 H    -0.22391     0.39971    -0.96828
 H    -0.23542     0.05890     0.74834
 H     2.35301    -0.23269    -0.92951
 H     2.20531    -0.16326     0.85871
 H     3.07541     1.83934    -1.69339
 H     2.40455     3.31321    -0.78123
 H    -0.17106     1.75906    -3.32844
 H     1.12887     0.53743    -2.81385
 H     3.53970     1.89504    -3.59156
 H     3.13591     2.16761    -5.37982
 H     3.17169    -1.61328    -4.34370
 H     2.64336    -0.60111    -2.95363
 H     5.14797    -1.36765    -2.83230
 H     4.94987     0.38687    -2.75374
 H     5.43986    -0.38001    -4.26820
