   31
 
 C     0.25884    -1.40305    -0.48824
 C     1.78015    -1.28755    -0.49641
 O     2.09519     0.09992    -0.50714
 C     2.94528     0.56002    -1.51460
 O     2.21868     1.09781    -2.59474
 C     1.58952     0.19553    -3.45585
 O     2.54258    -0.62269    -4.09429
 C     3.32494     0.01386    -5.07617
 O     2.54867     0.33018    -6.19526
 C     1.88452    -0.72409    -6.85237
 O     2.71415    -1.31834    -7.80798
 C     3.47864    -2.43915    -7.40635
 C     2.59699    -3.65443    -7.14382
 H    -0.07964    -2.20989     0.16959
 H    -0.15458    -1.58782    -1.48414
 H    -0.18869    -0.46654    -0.11827
 H     2.24135    -1.82765    -1.33873
 H     2.22214    -1.65236     0.45086
 H     3.66167    -0.20009    -1.86058
 H     3.40589     1.46681    -1.07105
 H     1.05490     0.85002    -4.16804
 H     0.94919    -0.52519    -2.92148
 H     4.11088    -0.72608    -5.29961
 H     3.69985     0.99822    -4.73960
 H     1.13793    -0.18349    -7.46993
 H     1.45806    -1.44359    -6.13884
 H     4.11006    -2.18497    -6.53942
 H     4.12690    -2.58485    -8.29425
 H     3.18411    -4.57953    -7.14929
 H     1.82447    -3.74895    -7.91803
 H     2.08969    -3.59601    -6.17514
