   36
 
 C     0.00000     0.00000     0.00000
 C     1.36443     0.00000     0.00000
 C     2.08934     1.23130     0.00000
 C     1.41674     2.42280     0.00064
 C    -0.01096     2.45108     0.00106
 C    -0.72854     1.23031     0.00044
 C    -2.13531     1.24934     0.00037
 C    -2.84037     2.44462     0.00110
 C    -2.11218     3.67212     0.00211
 C    -0.72500     3.66313     0.00212
 C    -4.29397     2.48905     0.00083
 C    -4.95138     3.73312     0.00180
 C    -4.18156     4.95545     0.00290
 C    -2.83115     4.92609     0.00352
 C    -6.35727     3.79116     0.00150
 C    -7.10867     2.62817    -0.00009
 C    -6.45576     1.38224    -0.00131
 C    -5.07590     1.31724    -0.00113
 C     3.57892     1.17440    -0.00091
 C    -8.59866     2.67407    -0.00070
 H    -0.56107    -0.93319    -0.00023
 H     1.92569    -0.93183    -0.00019
 H     1.95060     3.37020     0.00079
 H    -2.66404     0.29615    -0.00025
 H    -0.17301     4.60193     0.00279
 H    -4.73005     5.89619     0.00375
 H    -2.24238     5.84277     0.00449
 H    -6.84831     4.76191     0.00243
 H    -7.04719     0.46926    -0.00239
 H    -4.58814     0.34245    -0.00205
 H     3.95690     0.64181    -0.88631
 H     3.95815     0.64369     0.88510
 H     4.04305     2.16966    -0.00228
 H    -9.01264     2.17358    -0.88868
 H    -9.01401     2.16590     0.88225
 H    -8.99363     3.69856     0.00345
