   13
 
 H     0.00000     0.00000     0.00000
 C     1.08508     0.00000     0.00000
 C     1.79305     1.20079     0.00000
 C     3.18067     1.15759     0.00062
 C     3.90178    -0.03466     0.00140
 C     3.20680    -1.23635     0.00132
 C     1.80519    -1.19688     0.00083
 O     1.20037    -2.41117     0.00039
 H     1.25753     2.15143    -0.00050
Cl     4.04588     2.63302     0.00068
 H     4.99330    -0.02984     0.00203
 H     3.72043    -2.19569     0.00197
 H     0.21445    -2.34069    -0.00077
