   12
 
 N     0.00000     0.00000     0.00000
 C     1.34520     0.00000     0.00000
 C     2.10086     1.18028     0.00000
 C     1.41599     2.39828     0.00036
 C     0.01862     2.40944     0.00067
 C    -0.64998     1.17788     0.00019
 C     2.13989     3.62420     0.00057
 N     2.72823     4.62024     0.00092
 H     1.82264    -0.98859     0.00001
 H     3.18828     1.14567    -0.00030
 H    -1.74618     1.11853     0.00003
 H    -0.53711     3.34485     0.00109
