   15
 
 H     0.00000     0.00000     0.00000
 C     1.09786     0.00000     0.00000
 C     1.82855     1.18863     0.00000
 C     3.22408     1.07201    -0.00040
 C     3.84956    -0.17500    -0.00099
 C     3.02125    -1.30938    -0.00107
 N     1.67304    -1.22045    -0.00040
 H     4.92575    -0.27524    -0.00143
 H     4.89098     2.10025    -0.00049
 H     1.35177     2.16202     0.00048
 O     3.90997     2.23643    -0.00020
 C     3.60381    -2.68263    -0.00238
 H     4.22744    -2.85217    -0.89196
 H     4.22927    -2.85330     0.88571
 H     2.81950    -3.45980    -0.00209
