   37
 
 C     0.00000     0.00000     0.00000
 C     1.53146     0.00000     0.00000
 C    -0.52653     1.44047     0.00000
 C    -0.52315    -0.78383    -1.21043
 N    -0.49589    -0.68455     1.26236
 C    -1.78858    -0.83101     1.47870
 C    -2.38905    -1.46546     2.64056
 C    -1.65093    -2.01102     3.69507
 C    -2.29861    -2.60600     4.77467
 C    -3.69106    -2.66751     4.82260
 C    -4.43340    -2.12214     3.77085
 C    -3.79159    -1.52798     2.69189
 O     0.39326    -1.07393     2.03780
 H     1.93429     0.51927     0.88192
 H     1.93402    -1.02233     0.04427
 H     1.93131     0.48624    -0.89411
 H    -1.62060     1.49105    -0.03501
 H    -0.20285     1.98623     0.89728
 H    -0.14712     1.99176    -0.86879
 H    -0.24033    -1.84425    -1.15569
 H    -1.61409    -0.74117    -1.30282
 H    -0.10351    -0.38474    -2.14180
 H    -2.48547    -0.44873     0.72918
 H    -0.55871    -1.97559     3.68101
 H    -1.70743    -3.02628     5.58635
 C    -4.40279    -3.30884     5.98500
 H    -5.51996    -2.16173     3.79426
 H    -4.38349    -1.10863     1.88167
 C    -4.07639    -2.55934     7.28373
 C    -4.00947    -4.78814     6.09519
 H    -5.50961    -3.25537     5.82179
 H    -4.32856    -1.49608     7.19785
 H    -3.01093    -2.62309     7.53073
 H    -4.63749    -2.96987     8.12905
 H    -2.94384    -4.90759     6.31972
 H    -4.20668    -5.31822     5.15625
 H    -4.57321    -5.28953     6.88811
