   20
 
 C     0.00000     0.00000     0.00000
 C     1.36922     0.00000     0.00000
 C     2.08723     1.22271     0.00000
 C     1.42362     2.42292     0.00038
 C     0.00485     2.46430     0.00142
 C    -0.70779     1.23806     0.00203
 N    -2.08378     1.18973     0.00322
 C    -2.75496     2.32623     0.00407
 C    -2.12450     3.60381     0.00399
 C    -0.75215     3.67667     0.00328
 H    -3.85019     2.24966     0.00486
 H    -0.58129    -0.92326    -0.00017
 H     1.92636    -0.93637    -0.00012
 H     3.17565     1.19016    -0.00033
 H     1.97901     3.35980    -0.00012
 H    -2.74344     4.49549     0.00442
 C    -0.06027     4.99479     0.00263
 H     0.57734     5.11325    -0.88764
 H     0.58504     5.11059     0.88769
 H    -0.76083     5.84229     0.00708
