   21
 
 C     0.00000     0.00000     0.00000
 C     1.37258     0.00000     0.00000
 C     2.09118     1.22086     0.00000
 C     1.42734     2.41952    -0.00014
 C     0.00280     2.43594    -0.00037
 C    -0.72686     1.21693    -0.00060
 C    -2.15920     1.27655    -0.00069
 C    -2.78445     2.49829    -0.00062
 C    -1.95571     3.65699    -0.00060
 N    -0.62786     3.65932    -0.00082
 O    -2.58250     4.84985    -0.00034
 C    -2.96170     0.02330    -0.00128
 H    -0.54728    -0.94224     0.00021
 H     1.92789    -0.93559     0.00015
 H     3.18072     1.18952     0.00006
 H     1.95316     3.37466    -0.00014
 H    -3.86311     2.61705    -0.00064
 H    -1.92532     5.60656    -0.00046
 H    -4.04555     0.21201     0.00139
 H    -2.74784    -0.59032    -0.89087
 H    -2.74396    -0.59396     0.88485
