   14
 
 N     0.00000     0.00000     0.00000
 C     1.34607     0.00000     0.00000
 C     2.10340     1.17763     0.00000
 C     1.43657     2.40465    -0.00075
 C     0.03813     2.41012    -0.00131
 C    -0.63844     1.18615    -0.00148
 C     2.18910     3.68857    -0.00147
 H     3.18739     1.13108     0.00033
 H    -0.51356     3.34428    -0.00147
 H    -1.73355     1.13577    -0.00156
 H     1.95027     4.29204    -0.89126
 H     1.93843     4.30061     0.87916
 H     3.27875     3.54665     0.00656
 H     1.82094    -0.98808     0.00022
