   11
 
 N     0.00000     0.00000     0.00000
 C     1.40591     0.00000     0.00000
 C     1.98076     1.24370     0.00000
 S     0.75277     2.47248     0.00017
 C    -0.49714     1.20818     0.00038
 C     2.09654    -1.30793     0.00046
 H     3.02829     1.47466    -0.00003
 H    -1.55717     1.42553     0.00050
 H     1.83767    -1.89342     0.89979
 H     1.78667    -1.92170    -0.86328
 H     3.18935    -1.20811    -0.03282
