   27
 
 C     0.00000     0.00000     0.00000
 C     1.38762     0.00000     0.00000
 C     2.11362     1.19916     0.00000
 C     1.44027     2.39936     0.07242
 C     0.03007     2.41962     0.07213
 C    -0.71062     1.22599    -0.07526
 C    -2.14571     1.34193    -0.26296
 C    -2.78291     2.56489     0.03576
 C    -1.99677     3.73145     0.33322
 C    -0.64536     3.67340     0.28299
 C    -4.18874     2.67135    -0.02723
 C    -4.95156     1.60665    -0.45819
 C    -4.31588     0.42724    -0.88025
 C    -2.94288     0.30613    -0.79692
 C    -0.66894    -1.32452     0.16736
 H     1.93129    -0.94308     0.01867
 H     3.20090     1.17095    -0.02830
 H     1.98669     3.33796     0.13582
 H    -2.52011     4.65933     0.55882
 H    -0.03289     4.56183     0.43256
 H    -4.66212     3.60932     0.25794
 H    -6.03588     1.67849    -0.49764
 H    -4.91434    -0.38730    -1.28373
 H    -2.47104    -0.59078    -1.19297
 H    -1.60062    -1.24724     0.74882
 H    -0.90356    -1.78742    -0.80265
 H    -0.03154    -2.03909     0.70977
