   22
 
 C     0.00000     0.00000     0.00000
 C     1.52716     0.00000     0.00000
 C     2.07568     1.44088     0.00000
 C     3.50881     1.43789     0.00121
 C     4.72075     1.43673     0.00148
 C     6.15382     1.43709     0.00160
 C     6.70208     2.87714     0.04744
 C     8.22884     2.87640     0.04549
 H    -0.40303     0.50713     0.88376
 H    -0.40284     0.50565    -0.88469
 H    -0.39464    -1.02260     0.00077
 H     1.91110    -0.54717     0.88191
 H     1.91086    -0.54588    -0.88290
 H     1.68182     1.99253     0.88573
 H     1.68435     1.99233    -0.88670
 H     6.54644     0.85539     0.86860
 H     6.54611     0.91341    -0.90191
 H     8.62429     3.89813     0.08150
 H     6.31754     3.39412     0.94719
 H     6.31630     3.45071    -0.81683
 H     8.63022     2.40167    -0.85688
 H     8.63269     2.33836     0.91047
