   21
 
 O     0.00000     0.00000     0.00000
 C     1.20909     0.00000     0.00000
 C     1.99075     1.28147     0.00000
 C     1.99211    -1.25234    -0.00054
 C     1.36840    -2.44056    -0.00011
 C     2.03151    -3.74072    -0.00041
 C     3.42505    -3.86788    -0.01061
 C     4.01719    -5.12845    -0.01043
 C     3.22432    -6.27399    -0.00016
 C     1.83478    -6.15674     0.00991
 C     1.24080    -4.89849     0.01004
 H     2.63889     1.35653     0.88265
 H     2.62661     1.36306    -0.89102
 H     1.32152     2.15524     0.00754
 H     3.07191    -1.14524    -0.00114
 H     0.26664    -2.47162     0.00047
 H     4.05535    -2.97976    -0.01899
 H     5.10188    -5.21807    -0.01833
 H     3.68822    -7.25869     0.00000
 H     1.21416    -7.05118     0.01756
 H     0.15404    -4.81454     0.01779
