   20
 
 C     0.00000     0.00000     0.00000
 C     1.33606     0.00000     0.00000
 C     2.15949     1.24627     0.00000
 C     1.33111     2.47573    -0.42902
 C    -0.00494     2.49038     0.33579
 C    -0.82607     1.24550    -0.02730
 C     2.10274     3.72794    -0.13908
 C     2.54538     4.54405    -1.09489
 H    -0.57068    -0.92621     0.00615
 H     1.90798    -0.92530     0.01493
 H     2.58177     1.40487     1.01496
 H     3.03400     1.13829    -0.67225
 H     1.11329     2.38864    -1.52186
 H     0.18145     2.51908     1.42512
 H    -0.57025     3.40914     0.09751
 H    -1.68750     1.15182     0.66451
 H    -1.26817     1.36731    -1.03938
 H     2.27956     3.92493     0.91737
 H     2.38755     4.37887    -2.14892
 H     3.10321     5.44567    -0.89614
