   29
 
 C    -0.00001     0.00000     0.00000
 H    -0.42003     1.00157     0.06229
 H     0.57522    -0.08596    -0.92011
 H     0.67950    -0.16065     0.83213
 C    -1.04546    -1.09012     0.01737
 O    -0.75338    -2.26496     0.20046
 N    -2.32223    -0.66759    -0.19691
 H    -2.47687     0.30955    -0.36471
 C    -3.43206    -1.58985    -0.29067
 H    -3.04156    -2.57927    -0.07364
 H    -4.20679    -1.34386     0.43284
 H    -3.86317    -1.59140    -1.29076
 C     1.28846    -0.54973     3.88252
 H     1.40530     0.20468     3.10378
 H     1.20235    -0.02484     4.83418
 H     2.20056    -1.14397     3.90933
 C     0.06019    -1.41312     3.62497
 H    -0.03438    -2.15857     4.41802
 H     0.17661    -1.96658     2.69113
 C    -1.22235    -0.59450     3.55967
 H    -1.33392    -0.01677     4.48275
 H    -1.14311     0.13831     2.75002
 C    -2.46670    -1.44484     3.34279
 H    -2.55750    -2.15933     4.16421
 H    -2.33889    -2.03378     2.43257
 C    -3.73354    -0.60455     3.25267
 H    -3.66663     0.10250     2.42490
 H    -4.61888    -1.22057     3.09884
 H    -3.88390    -0.02834     4.16589
