   24
 
 C    -0.00001     0.00000     0.00000
 H     0.57402     0.90112    -0.16757
 C     0.64589    -1.23247     0.08605
 H     1.72132    -1.28773    -0.01342
 C    -0.09416    -2.39365     0.30266
 H     0.40714    -3.34912     0.37349
 C    -1.48019    -2.32275     0.43116
 H    -2.05373    -3.22451     0.59747
 C    -2.12623    -1.09043     0.34636
 H    -3.20162    -1.03461     0.44727
 C    -1.38610     0.07120     0.13161
 H    -1.88703     1.02749     0.06837
 C    -0.57109    -0.96021     3.75916
 H    -0.44897    -0.73473     2.70873
 C    -1.66217    -1.71511     4.18649
 H    -2.38268    -2.07162     3.46280
 C    -1.82287    -2.00923     5.53944
 H    -2.66998    -2.59520     5.86969
 C    -0.89099    -1.54818     6.46793
 H    -1.01489    -1.77615     7.51794
 C     0.20059    -0.79308     6.04270
 H     0.92371    -0.43525     6.76308
 C     0.35940    -0.49959     4.68920
 H     1.20666     0.08648     4.35916
