   22
 
 N    -0.00001     0.00000     0.00000
 C    -0.67149    -1.13862    -0.22238
 H    -0.12236    -2.05515    -0.04551
 C    -1.99545    -1.18434    -0.65253
 H    -2.47997    -2.13694    -0.81272
 C    -2.66997     0.01351    -0.86704
 H    -3.69813     0.01878    -1.20148
 C    -1.98733     1.20447    -0.64018
 H    -2.46540     2.16193    -0.79046
 C    -0.66388     1.14535    -0.21032
 H    -0.10867     2.05629    -0.02375
 N    -0.87266     0.01168     5.76178
 C    -0.00199     0.00606     4.74236
 H     1.04587     0.00731     5.01667
 C    -0.37538    -0.00100     3.40054
 H     0.37209    -0.00517     2.61944
 C    -1.73142    -0.00242     3.08812
 H    -2.06115    -0.00787     2.05784
 C    -2.64953     0.00330     4.13329
 H    -3.71398     0.00245     3.94455
 C    -2.17392     0.01022     5.44225
 H    -2.86611     0.01480     6.27544
