   23
 
 C    -0.00001     0.00000     0.00000
 H     0.66132     0.84530     0.13393
 C     0.53042    -1.27537    -0.18829
 H     1.60210    -1.41939    -0.19660
 C    -0.32102    -2.36496    -0.36626
 H     0.09064    -3.35394    -0.51453
 C    -1.70280    -2.17938    -0.35307
 H    -2.36347    -3.02438    -0.49109
 C    -2.23313    -0.90429    -0.16184
 H    -3.30480    -0.76050    -0.14942
 C    -1.38170     0.18550     0.01328
 H    -1.79401     1.17489     0.15791
 N    -0.82197    -0.70589     6.07509
 C    -0.66729     0.23207     5.13021
 H    -0.52551     1.24459     5.48811
 C    -0.68150    -0.03522     3.76371
 H    -0.55126     0.76580     3.04983
 C    -0.86583    -1.34685     3.33842
 H    -0.88240    -1.58997     2.28507
 C    -1.02768    -2.33189     4.30728
 H    -1.17423    -3.36710     4.03251
 C    -0.99848    -1.96455     5.65037
 H    -1.12208    -2.71207     6.42447
