   18
 
 C     0.00000     0.00000     0.00000
 C     1.54028     0.00000     0.00000
 C     2.08043     1.43426     0.00000
 C     1.64983     2.17800     1.27798
 C     0.20976     1.94695     1.55569
 C    -0.52176     0.96773     0.99754
 S    -2.21596     0.86223     1.47989
 C    -2.20944     2.23175     2.60928
 S    -0.61293     3.00095     2.70842
 S    -3.48687     2.71386     3.43635
 H    -0.37187     0.26342    -1.01647
 H    -0.36447    -1.03244     0.19057
 H     1.91748    -0.55412    -0.87859
 H     1.91371    -0.54379     0.88916
 H     1.70970     1.97567    -0.89170
 H     3.18278     1.43035    -0.08042
 H     1.88563     3.25844     1.16887
 H     2.26380     1.82439     2.13791
