   58
 
 C    -1.59823    -2.94904     3.25000
 C    -4.00054    -2.90653     3.25000
 C    -4.01073    -1.56987     3.25000
 C    -2.71930    -0.91872     3.25000
 N    -2.83090    -3.58684     3.25000
 N    -1.59493    -1.59987     3.25000
 N    -2.65320     0.40243     3.25000
 O    -0.59807    -3.62952     3.25000
 H    -2.80664    -4.58104     3.25000
 H    -4.89729    -3.49719     3.25000
 H    -4.92358    -1.00897     3.25000
 H    -3.47949     0.95008     3.25000
 H    -1.75810     0.86466     3.25000
 C     1.06924     1.10868     3.25000
 C     2.28543    -1.02212     3.25000
 C     3.45505     0.84441     3.25000
 C     2.37241     1.68915     3.25000
 C     4.05867     2.94921     3.25000
 N     1.14238    -0.28391     3.25000
 N     3.47938    -0.50007     3.25000
 N     2.78381     3.00766     3.25000
 N     4.53678     1.65766     3.25000
 N     2.13456    -2.34937     3.25000
 O    -0.01301     1.65138     3.25000
 H     0.25502    -0.76145     3.25000
 H     4.72299     3.78940     3.25000
 H     5.48388     1.36058     3.25000
 H     2.96098    -2.89665     3.25000
 H     1.23816    -2.79443     3.25000
 C    -1.51670     0.26845     0.00000
 C    -1.24816    -2.17025     0.00000
 C    -3.29152    -1.34768     0.00000
 C    -2.91218    -0.02792     0.00000
 C    -5.01703     0.00033     0.00000
 N    -0.75733    -0.90116     0.00000
 N    -2.52095    -2.44970     0.00000
 N    -4.02001     0.79696     0.00000
 N    -4.64468    -1.32558     0.00000
 N    -0.34597    -3.15535     0.00000
 O    -0.96013     1.34364     0.00000
 H     0.24125    -0.76592     0.00000
 H    -6.04834     0.28958     0.00000
 H    -5.23628    -2.12261     0.00000
 H    -0.69287    -4.08386     0.00000
 H     0.64083    -2.98851     0.00000
 C     3.02639    -1.44640     0.00000
 C     4.94492     0.00003     0.00000
 C     4.16749     1.08740     0.00000
 C     2.73997     0.85511     0.00000
 N     4.39853    -1.23785     0.00000
 N     2.23070    -0.35684     0.00000
 N     1.90994     1.88508     0.00000
 O     2.61723    -2.58481     0.00000
 H     4.96329    -2.05644     0.00000
 H     6.01759     0.04927     0.00000
 H     4.57632     2.07773     0.00000
 H     2.25653     2.81382     0.00000
 H     0.91410     1.73291     0.00000
