  158
 
 C     0.52741     0.00270    -2.47804
 C    -0.37630     0.00200    -3.54560
 C    -1.19140    -1.17300    -3.79922
 C    -2.51090    -0.72600    -4.20986
 C     0.64914    -1.16100    -1.62382
 C    -1.06540    -2.29400    -2.97574
 C     0.64511     1.16600    -1.62180
 C    -1.19550     1.17480    -3.79718
 C    -2.51350     0.72460    -4.20860
 C    -1.07330     2.29560    -2.97175
 C    -3.64570    -1.42400    -3.78291
 C    -0.13400    -2.28300    -1.86746
 C    -2.24410    -3.00900    -2.52970
 C    -3.65060     1.41760    -3.78045
 C    -3.50830    -2.58400    -2.92627
 C    -4.81660    -0.70100    -3.33148
 C     0.86079    -0.71600    -0.26350
 C    -0.14190     2.28550    -1.86349
 C     0.85831     0.71950    -0.26225
 C    -0.72390    -3.00300    -0.76092
 C    -2.02780    -3.44800    -1.16867
 C    -4.59600    -2.58400    -1.97190
 C    -5.40360    -1.42100    -2.22217
 C    -4.81900     0.69010    -3.33027
 C     0.36730    -1.45400     0.84474
 C    -0.45640    -2.64100     0.58544
 C    -3.09710    -3.54500    -0.24086
 C    -4.43120    -3.09600    -0.65695
 C    -6.06720    -0.74300    -1.16444
 C    -5.40850     1.40570    -2.21972
 C     0.14678    -0.72100     2.04083
 C     0.36228     1.45340     0.84726
 C    -1.44300    -3.00400     1.53812
 C    -2.74640    -3.45200     1.13094
 C    -5.31490    -2.58700     0.33209
 C    -6.12300    -1.42400     0.08126
 C    -6.06980     0.72420    -1.16317
 C    -0.80410    -1.16800     3.03644
 C     0.14430     0.71800     2.04208
 C    -1.58580    -2.29300     2.78856
 C    -3.69880    -3.01700     2.12867
 C    -4.96360    -2.59100     1.73566
 C    -6.27240    -0.70800     1.32912
 C    -6.12790     1.40230     0.08372
 C    -2.25450     3.00540    -2.52447
 C    -3.51720     2.57690    -2.92180
 C    -0.73430     3.00150    -0.75572
 C    -4.60500     2.57150    -1.96742
 C    -0.46550     2.63790     0.59001
 C    -1.39200    -0.00590     3.66989
 C    -0.80810     1.16020     3.03846
 C    -2.98320    -2.30600     3.16989
 C    -5.56510    -1.43200     2.36462
 C    -6.27480     0.68360     1.33033
 C    -5.32380     2.56800     0.33656
 C    -2.03980     3.44290    -1.16269
 C    -4.44190     3.08190    -0.65159
 C    -1.45330     2.99570     1.54333
 C    -2.74360    -0.00890     4.03077
 C    -1.59370     2.28200     2.79253
 C    -3.55640    -1.18300     3.77456
 C    -4.87560    -0.73700     3.36275
 C    -5.57000     1.40890     2.36709
 C    -4.97250     2.57040     1.74014
 C    -3.10940     3.53480    -0.23472
 C    -2.75830     3.44020     1.13692
 C    -3.56050     1.16430     3.77660
 C    -2.99120     2.29010     3.17389
 C    -4.87810     0.71390     3.36401
 C    -3.70920     3.00060     2.13390
 C     6.43783    -1.37200     2.43050
 C     5.53611    -0.69300     1.59482
 C     5.53351     0.71240     1.59544
 C     6.43271     1.39370     2.43173
 C     7.33129     0.70900     3.24440
 C     7.33387    -0.68500     3.24378
 C     4.58216     1.53240     0.80345
 C     3.77255     2.43830     1.48693
 C     2.99457     3.41140     0.84651
 C     3.03619     3.46680    -0.60267
 C     3.81599     2.51020    -1.26927
 C     4.58831     1.55170    -0.61049
 C     2.12904     4.31720     1.61068
 C     1.58440     5.34940     0.87632
 C     1.64042     5.41780    -0.55035
 C     2.24111     4.45820    -1.33875
 C     0.53506     6.18610    -0.98893
 C    -0.20410     6.58500     0.15234
 C     0.44801     6.07600     1.30289
 C    -1.56270     6.85930     0.11442
 C    -2.12080     6.91370    -1.21791
 C    -1.39480     6.53190    -2.33991
 C    -0.03580     6.04880    -2.24741
 C     0.71947     5.21780    -3.14771
 C     1.80149     4.45570    -2.71091
 C    -2.21880     6.78960     1.40070
 C    -1.57810     6.29890     2.53225
 C    -0.21610     5.81790     2.49466
 C     0.46330     4.88560     3.35783
 C     1.57790     4.16670     2.93280
 C     5.51344     0.71610    -1.42007
 C     5.51599    -0.69400    -1.42069
 C     6.40037    -1.36800    -2.28038
 C     7.27509    -0.68200    -3.11687
 C     7.27257     0.71150    -3.11625
 C     6.39536     1.39330    -2.27917
 C     4.58777    -1.51600     0.80210
 C     3.78151    -2.42600     1.48479
 C     3.00700    -3.40100     0.84351
 C     3.04870    -3.45500    -0.60573
 C     3.82503    -2.49500    -1.27148
 C     4.59392    -1.53400    -0.61185
 C     2.25710    -4.44800    -1.34269
 C     1.65991    -5.41100    -0.55515
 C     1.60377    -5.34400     0.87158
 C     2.14477    -4.31000     1.60688
 C     0.47001    -6.07500     1.29755
 C    -0.18040    -6.58500     0.14657
 C     0.55727    -6.18300    -0.99438
 C     1.81740    -4.44600    -2.71483
 C     0.73809    -5.21200    -3.15228
 C    -0.01420    -6.04600    -2.25270
 C    -1.37140    -6.53400    -2.34554
 C    -2.09590    -6.92000    -1.22384
 C    -1.53790    -6.86400     0.10850
 C     1.59318    -4.16300     2.92918
 C     0.48120    -4.88600     3.35361
 C    -0.19490    -5.82000     2.48962
 C    -1.55520    -6.30600     2.52688
 C    -2.19420    -6.79800     1.39492
 H     0.38049     5.08570    -4.17215
 H     2.24880     3.76470    -3.41995
 H     1.96501     3.39690     3.59484
 H     0.03953     4.64670     4.33000
 H    -2.16150     6.18080     3.44223
 H    -3.27500     7.03670     1.47545
 H    -3.16970     7.16910    -1.34735
 H    -1.90680     6.50450    -3.29865
 H    -1.88370    -6.50800    -3.30421
 H    -3.14400    -7.17900    -1.35345
 H    -3.24950    -7.04900     1.46953
 H    -2.13890    -6.19100     3.43702
 H     0.05667    -4.65000     4.32605
 H     1.97760    -3.39300     3.59191
 H     2.26222    -3.75300    -3.42327
 H     0.39860    -5.08000    -4.17658
 H     3.77724     2.40780     2.57304
 H     3.84859     2.53120    -2.35505
 H     3.78617    -2.39600     2.57093
 H     3.85766    -2.51500    -2.35728
 H     6.38926     2.47980    -2.27068
 H     7.95014     1.26540    -3.75949
 H     7.95467    -1.23300    -3.76059
 H     6.39820    -2.45400    -2.27286
 H     6.42170     2.48020     2.42729
 H     8.02441     1.26130     3.87238
 H     8.02904    -1.23500     3.87127
 H     6.43084    -2.45900     2.42509
