   18
 
 C     0.00000     0.00000     0.00000
 C     1.37938     0.00000     0.00000
 C     2.09779     1.21127     0.00000
 C     1.40771     2.39682    -0.00010
 C    -0.00569     2.46423    -0.00007
 C    -0.72091     1.24271     0.00013
 N    -2.09198     1.18118     0.00031
 C    -2.77236     2.31240     0.00062
 C    -2.13992     3.59270     0.00076
 C    -0.77140     3.66462    -0.00011
Cl     2.29515     3.85243    -0.00018
 O    -0.64403    -1.17806    -0.00013
Br     2.31317    -1.63329    -0.00006
 H     3.19328     1.19493    -0.00003
 H    -3.86729     2.23086     0.00085
 H    -2.75774     4.48807     0.00098
 H    -0.26127     4.63044    -0.00038
 H    -1.64206    -1.03914    -0.00004
