   20
 
 C     0.00000     0.00000     0.00000
 C     1.38884     0.00000     0.00000
 C     2.08664     1.21376     0.00000
 C     1.33242     2.39571     0.00042
 N    -0.01308     2.40635     0.00075
 C    -0.67588     1.23279     0.00047
 C    -2.16713     1.29605     0.00061
 C     3.58171     1.19448    -0.00130
 C     4.23695     2.57467     0.00941
 H    -0.55850    -0.93043    -0.00015
 H     1.93441    -0.94286    -0.00012
 H     1.80260     3.38596     0.00052
 H    -2.58826     0.80161    -0.88604
 H    -2.58776     0.80927     0.89177
 H    -2.53121     2.33781    -0.00370
 H     3.93813     0.62814    -0.89108
 H     3.94017     0.61397     0.87844
 H     3.95611     3.14919     0.90025
 H     3.95943     3.16146    -0.87439
 H     5.33051     2.48887     0.01089
