   21
 
 C     0.00000     0.00000     0.00000
 C     1.52758     0.00000     0.00000
 C     2.04920     1.42398     0.00000
 C     3.49846     1.62586    -0.39378
 C     4.30524     1.95767     0.84679
 C     4.16915     3.34112     1.38981
 O     5.01219     1.12245     1.34994
 O     1.36939     2.36792     0.30888
 C     2.07805    -0.69943     1.24545
 H    -0.40225     0.44551    -0.91729
 H    -0.39984     0.58676     0.83916
 H    -0.40079    -1.01568     0.08386
 H     1.89368    -0.52986    -0.91354
 H     3.91876     0.72885    -0.89057
 H     3.57015     2.44794    -1.13490
 H     4.65404     4.07977     0.73685
 H     3.10909     3.63875     1.47661
 H     4.62473     3.43299     2.38711
 H     3.17665    -0.66818     1.28428
 H     1.70365    -0.23828     2.16797
 H     1.78190    -1.75467     1.26778
