   19
 
 C     0.00000     0.00000     0.00000
 C     1.37124     0.00000     0.00000
 C     2.05166     1.25292     0.00000
 N     1.42391     2.41342     0.00027
 C     0.04500     2.43138     0.00069
 C    -0.71136     1.22655     0.00079
 C    -2.14378     1.33225     0.00115
 C    -2.75249     2.58526     0.00148
 C    -1.97255     3.75451     0.00150
 C    -0.60018     3.69567     0.00118
 N    -2.92815     0.19726     0.00111
 H    -0.54388    -0.94351    -0.00011
 H     1.94556    -0.92007    -0.00009
 H     3.14914     1.28847    -0.00021
 H    -3.83356     2.67268     0.00175
 H    -2.48032     4.72116     0.00177
 H     0.01668     4.59217     0.00119
 H    -2.53405    -0.71294     0.00081
 H    -3.92065     0.26835     0.00146
