   15
 
 C    -0.00001     0.00000     0.00000
 H     0.11604    -0.52773    -0.93659
 C    -0.30221     1.36091    -0.00034
 H    -0.42319     1.88808    -0.93650
 C    -0.45287     2.04178     1.20756
 H    -0.68869     3.09705     1.20756
 C    -0.30221     1.36091     2.41545
 H    -0.42319     1.88808     3.35161
 C    -0.00001     0.00000     2.41511
 H     0.11604    -0.52773     3.35170
 C     0.15149    -0.68007     1.20756
 H     0.38833    -1.73530     1.20756
 O    -3.52399     0.34065     1.20756
 H    -3.35918    -0.60407     1.20756
 H    -2.63669     0.71224     1.20756
