   21
 
 N     0.00000     0.00000     0.00000
 C     1.34421     0.00000     0.00000
 C     2.09658     1.18051     0.00000
 C     1.41853     2.39670    -0.00378
 C     0.02312     2.41288    -0.00374
 C    -0.65683     1.17906    -0.00039
 C    -2.15365     1.08024     0.02956
 C    -2.82214     2.39533    -0.37924
 C    -2.17976     3.56484     0.37286
 C    -0.70983     3.71386    -0.04070
 H     1.81744    -0.98826    -0.00032
 H     3.18099     1.14517     0.00174
 H     1.97584     3.33256    -0.00684
 H    -2.47149     0.78463     1.05381
 H    -2.49456     0.24918    -0.62555
 H    -3.90725     2.35031    -0.17301
 H    -2.72580     2.54723    -1.47155
 H    -2.25354     3.39992     1.46478
 H    -2.72854     4.50264     0.16966
 H    -0.21375     4.46036     0.61360
 H    -0.65202     4.13387    -1.06916
