   18
 
 C     0.00000     0.00000     0.00000
 C     1.37028     0.00000     0.00000
 C     2.09088     1.21760     0.00000
 C     1.41738     2.41949    -0.00027
 C    -0.02984     2.43406    -0.00080
 C    -0.74769     1.20978    -0.00076
 C    -2.16782     1.30717    -0.00168
 C    -2.77712     2.53565    -0.00270
 C    -1.96616     3.70596    -0.00284
 N    -0.64671     3.65625    -0.00242
 I    -0.97337    -1.88074     0.00117
 I     4.20010     1.07659     0.00059
 O     1.94102     3.65657    -0.00020
 H     1.93051    -0.94280     0.00029
 H    -2.78232     0.40604    -0.00169
 H    -3.86016     2.63514    -0.00335
 H    -2.41939     4.70588    -0.00321
 H     2.93535     3.67021     0.00020
