  144
 
 C     2.72870     1.88190    -7.40603
 C     2.85728     0.76200    -8.22418
 C     2.59721    -0.49900    -7.69347
 C     2.24257    -0.59300    -6.34547
 N     2.14407     0.47770    -5.54487
 C     2.36521     1.69150    -6.07074
 C     1.89636    -1.94400    -5.76523
 O     1.79077    -2.94000    -6.48197
 C     2.14650     2.89530    -5.18656
 O     2.18560     4.03920    -5.64055
 N     1.70628    -1.92200    -4.41881
 C     1.21939    -2.99700    -3.62521
 C    -0.07150    -3.50800    -3.83054
 C    -0.55460    -4.47400    -2.93918
 C     0.19759    -4.93500    -1.85597
 C     1.49051    -4.41900    -1.69832
 C     2.01962    -3.46500    -2.56830
 C    -0.37110    -5.92900    -0.82486
 C    -1.63940    -6.63900    -1.35941
 C    -2.17730    -7.69600    -0.38772
 C    -1.12270    -8.76800    -0.09474
 C     0.16663    -8.12000     0.41932
 C     0.67297    -7.04600    -0.55113
 C    -0.69060    -5.10800     0.44117
 C    -1.90460    -4.42000     0.56213
 C    -2.20330    -3.62300     1.67004
 C    -1.23570    -3.48200     2.68343
 C    -0.00320    -4.15400     2.59540
 C     0.23622    -4.96000     1.47704
 C    -3.53110    -2.91800     1.78136
 N    -1.49430    -2.57900     3.74952
 C    -1.51540    -2.90600     5.07169
 O    -1.42370    -4.05000     5.51709
 C     1.05198    -3.99600     3.65550
 C    -0.94000    -3.01000    -4.95370
 C     3.41087    -2.92000    -2.36988
 C    -1.63920    -1.71300     5.98763
 N    -1.55710    -0.49100     5.44049
 C    -1.57250     0.57490     6.25330
 C    -1.70570     0.46630     7.63977
 C    -1.82250    -0.80400     8.19753
 C    -1.77580    -1.91800     7.36262
 C    -1.37050     1.93730     5.63440
 O    -1.19450     2.93670     6.33196
 N     1.88676     2.57870    -3.88795
 C     1.47345     3.49240    -2.88114
 C     0.27160     4.20760    -3.01258
 C    -0.14310     5.01740    -1.94707
 C     0.58141     5.12080    -0.75792
 C     1.77599     4.39350    -0.66259
 C     2.24713     3.59530    -1.70714
 C     0.09850     5.96860     0.43513
 C    -1.07790     6.89220     0.03805
 C    -1.51410     7.81190     1.18487
 C    -0.35480     8.69620     1.65608
 C     0.85364     7.83550     2.03879
 C     1.25459     6.90180     0.89004
 C    -0.32040     4.97770     1.53971
 C    -1.60570     4.42290     1.55714
 C    -1.98530     3.45360     2.48737
 C    -1.03800     3.01010     3.42531
 C     0.25484     3.55840     3.45616
 C     0.58227     4.53790     2.51219
 C    -3.37520     2.87150     2.47560
 N    -1.38100     1.92250     4.27437
 C     1.28309     3.08840     4.44899
 C    -0.57780     4.09140    -4.24851
 C     3.55132     2.84850    -1.58568
 H    -1.63350    -1.59400     3.50437
 H     1.85533    -1.03100    -3.93972
 H    -1.58130     1.02960     3.81758
 H     1.93065     1.58890    -3.62632
 C     0.80776     0.07800    -1.30446
 N     0.34200     1.19040    -0.71696
 C    -0.51930     1.26940     0.45380
 C    -0.86820    -0.06300     1.07652
 N    -0.41540    -1.17500     0.47824
 C     0.37808    -1.25600    -0.73927
 O     1.57364     0.10660    -2.28200
 O    -1.56470    -0.09200     2.10538
 H     0.67101     2.07510    -1.10893
 H    -0.68850    -2.05900     0.91230
 H     2.88724     2.89270    -7.76538
 H     3.14244     0.87210    -9.26647
 H     2.64909    -1.40600    -8.28463
 H    -1.55900    -4.85100    -3.10416
 H     2.10815    -4.75000    -0.86777
 H    -1.37470    -7.11800    -2.31147
 H    -2.42860    -5.91700    -1.58707
 H    -2.47500    -7.21000     0.55074
 H    -3.08000    -8.15300    -0.81112
 H    -0.90690    -9.32600    -1.01741
 H    -1.50450    -9.49100     0.63511
 H    -0.02230    -7.66900     1.40160
 H     0.94693    -8.87800     0.56088
 H     1.61197    -6.62200    -0.18339
 H     0.90820    -7.50700    -1.51935
 H    -2.65380    -4.50000    -0.21966
 H     1.19311    -5.47000     1.42422
 H    -4.02980    -3.18400     2.71978
 H    -3.40570    -1.82900     1.78276
 H    -4.18270    -3.19300     0.94791
 H     2.01479    -4.37100     3.29847
 H     1.16684    -2.94400     3.93927
 H     0.76992    -4.54200     4.56214
 H    -1.97380    -3.33800    -4.81620
 H    -0.57320    -3.38100    -5.91685
 H    -0.92240    -1.91500    -5.00640
 H     3.91795    -3.44500    -1.55537
 H     4.00605    -3.03300    -3.28256
 H     3.38751    -1.84900    -2.13533
 H    -1.70240     1.37140     8.23718
 H    -1.93320    -0.92600     9.27121
 H    -1.82960    -2.93400     7.73681
 H    -1.07540     5.56000    -2.06418
 H     2.36478     4.43940     0.24944
 H    -0.74870     7.50360    -0.81278
 H    -1.93450     6.30910    -0.31438
 H    -1.87370     7.20230     2.02391
 H    -2.35700     8.43030     0.85418
 H    -0.07010     9.38220     0.84530
 H    -0.66690     9.31560     2.50490
 H     0.60733     7.23960     2.92668
 H     1.70720     8.47000     2.30595
 H     2.13871     6.32000     1.16716
 H     1.54684     7.49830     0.01588
 H    -2.34360     4.73870     0.82535
 H     1.58752     4.94730     2.54426
 H    -3.84120     2.95830     3.46316
 H    -3.35430     1.80450     2.22431
 H    -4.00360     3.38970     1.74593
 H     2.27841     3.44470     4.16973
 H     1.04267     3.45280     5.45355
 H     1.30387     1.99390     4.50366
 H    -1.57650     4.49830    -4.06813
 H    -0.67430     3.04520    -4.56000
 H    -0.11750     4.63150    -5.08290
 H     3.39787     1.76460    -1.63554
 H     4.22354     3.11430    -2.40895
 H     4.04404     3.08860    -0.63981
 H    -1.46010     1.76760     0.19522
 H    -0.04270     1.88670     1.22285
 H     1.28338    -1.83800    -0.54732
 H    -0.17410    -1.79400    -1.51924
