   37
 
 C     0.00000     0.00000     0.00000
 C     1.40412     0.00000     0.00000
 C     1.95543     1.38967     0.00000
 C     0.71463     2.31720     0.00189
 C    -0.55474     1.40380    -0.00102
 C    -0.70553    -1.18726     0.00013
 C    -0.00753    -2.40766    -0.00002
 C     1.38564    -2.39594     0.00005
 C     2.10204    -1.19283     0.00016
 C    -0.80991    -3.69472     0.00007
 C    -1.69761    -3.72508    -1.25864
 C    -1.68723    -3.72982     1.26599
 C     0.07518    -4.95282    -0.00623
 C    -1.40095     1.64136     1.25356
 C    -1.39439     1.64067    -1.26028
 H     2.59387     1.57080     0.88261
 H     2.59098     1.57121    -0.88472
 H     0.72147     2.97517     0.88318
 H     0.72223     2.97977    -0.87592
 H    -1.79246    -1.17561     0.00042
 H     3.18802    -1.20491     0.00032
 H    -1.09025    -3.64347    -2.16708
 H    -2.41620    -2.89972    -1.27019
 H    -2.26715    -4.65743    -1.31945
 H    -1.07201    -3.65488     2.16972
 H    -2.40318    -2.90235     1.28806
 H    -2.25881    -4.66091     1.32636
 H     0.71895    -4.99576     0.87880
 H     0.71210    -4.99114    -0.89644
 H    -0.53653    -5.86157    -0.00621
 H    -0.82310     1.43878     2.16334
 H    -2.27671     0.98319     1.27294
 H    -1.75952     2.67412     1.30477
 H    -0.81110     1.44004    -2.16697
 H    -2.26863     0.98066    -1.28507
 H    -1.75477     2.67271    -1.31269
 H     1.94783    -3.32737     0.00011
