   15
 
 N     0.00000     0.00000     0.00000
 C     1.37595     0.00000     0.00000
 C     2.07092     1.18708     0.00000
 C     1.36318     2.41928    -0.00071
 C     0.00290     2.43920    -0.00181
 C    -0.75924     1.21321    -0.00178
 O    -1.96457     1.07710    -0.00332
 C     2.06508    -1.32356     0.00046
 H     3.15394     1.19487     0.00047
 H     1.93872     3.34781    -0.00046
 H    -0.57629     3.35914    -0.00280
 H     2.71675    -1.42911    -0.88304
 H     2.71208    -1.43104     0.88717
 H     1.38277    -2.18455    -0.00246
 H    -0.51724    -0.87488     0.00010
