   12
 
 C    -0.00001     0.00000     0.00000
 H     0.71794     0.63393    -0.46361
 C    -0.77572    -0.75283     0.55058
 H    -1.47015    -1.40157     1.02498
 C     3.44500    -0.86893     0.63654
 O     3.19082     0.08717    -0.06230
 O     2.49710    -1.64328     1.20423
 H     1.63610    -1.27598     0.93645
 C     4.82064    -1.35038     0.98669
 H     5.55902    -0.71283     0.51584
 H     4.94685    -1.33853     2.06672
 H     4.94292    -2.37823     0.65346
