   15
 
 N    -0.00001     0.00000     0.00000
 C    -0.11983    -1.14244    -0.69027
 H    -0.01546    -2.05581    -0.11777
 C    -0.36376    -1.19248    -2.05971
 H    -0.45063    -2.14657    -2.55937
 C    -0.49166     0.00272    -2.75951
 H    -0.68066     0.00377    -3.82393
 C    -0.37044     1.19653    -2.05612
 H    -0.46261     2.15156    -2.55300
 C    -0.12629     1.14379    -0.68683
 H    -0.02714     2.05598    -0.11163
 C     0.55486    -0.00677     4.48652
 H     0.67027    -0.00620     5.54153
 C     0.42279    -0.00732     3.28027
 H     0.30464    -0.00706     2.21577
