   28
 
 C     0.00000     0.00000     0.00000
 C     1.53859     0.00000     0.00000
 C     2.07472     1.43496     0.00000
 C     3.60851     1.43381     0.02088
 C     4.15266     2.86828     0.00421
 C     5.68444     2.85670     0.03976
 C     6.23686     4.28461     0.01380
 C     7.72923     4.25932     0.06491
 N    -0.48590    -1.39492    -0.11636
 O     8.47659     3.32154     0.14416
 O     8.21928     5.52846     0.00876
 H    -0.38432     0.51655     0.90432
 H    -0.37982     0.55965    -0.88397
 H     1.92256    -0.55615     0.87410
 H     1.90384    -0.55080    -0.89024
 H     1.70842     1.97672    -0.89226
 H     1.68443     1.98922     0.87373
 H     3.97472     0.89802     0.91684
 H     3.99745     0.86977    -0.84827
 H     3.79381     3.39772    -0.89811
 H     3.75424     3.43341     0.86755
 H     6.04534     2.32395     0.94262
 H     6.08575     2.27737    -0.81606
 H     5.89716     4.82607    -0.89587
 H     5.84085     4.87964     0.86571
 H    -0.10157    -1.98699     0.60069
 H    -1.49002    -1.44323    -0.07490
 H     9.20489     5.57774     0.03934
