   21
 
 C     0.00000     0.00000     0.00000
 C     1.56296     0.00000     0.00000
 C     2.07695     1.46396     0.00000
 C     0.87148     2.43265     0.07669
 C     0.01054     2.22745    -1.19519
 C    -0.50155     0.77318    -1.24353
 C    -0.42338     0.77304     1.22112
 C     0.03131     2.03317     1.26157
 H    -0.38515    -1.03879    -0.00376
 H     1.90921    -0.51131     0.93866
 C     2.06592    -0.72029    -1.15036
 H     2.74988     1.63029     0.85886
 H     2.67351     1.67966    -0.90409
 H     1.22332     3.48131     0.14281
 H    -0.83619     2.93528    -1.18933
 H     0.60327     2.46256    -2.09523
 H    -1.60514     0.75248    -1.27088
 H    -0.16397     0.27026    -2.16657
 H    -1.04501     0.29447     1.95756
 H    -0.15665     2.75229     2.04001
 N     2.47210    -1.29507    -2.06825
