   32
 
 C     0.00000     0.00000     0.00000
 C     1.39593     0.00000     0.00000
 C     2.07968     1.21956     0.00000
 C     1.39565     2.39676     0.31614
 C    -0.00031     2.39755     0.31592
 C    -0.69198     1.20614     0.10251
 C     1.19538    -0.44973     3.39641
 C     2.28827    -0.33720     2.53544
 C     2.92373     0.89990     2.39508
 C     2.29043     2.06036     2.84932
 C     1.19549     1.94934     3.70787
 C     0.68754     0.68905     4.02019
 C     2.69157    -1.46460     1.63312
 C     2.17778    -1.26844     0.16717
 C     2.17389     3.57980     0.80842
 C     2.69927     3.38160     2.27024
 H     3.15613     1.23945    -0.15117
 H    -0.54554     3.31671     0.51039
 H    -1.77949     1.21050     0.07010
 H     3.86147     0.96969     1.84924
 H     0.72138     2.84060     4.10890
 H    -0.14437     0.59887     4.71566
 H     2.30935    -2.42960     2.01848
 H     3.79420    -1.56858     1.61658
 H     1.56437    -2.14594    -0.11480
 H     3.04484    -1.27872    -0.52203
 H     3.03498     3.77919     0.14120
 H     1.55197     4.49540     0.77520
 H     2.32898     4.21540     2.89745
 H     3.80281     3.47694     2.27119
 H    -0.54718    -0.93701    -0.05128
 H     0.72233    -1.41407     3.55802
