   23
 
 C     0.00000     0.00000     0.00000
 C     1.52686     0.00000     0.00000
 C     2.10787     1.42016     0.00000
 C     3.61302     1.33233    -0.28165
 O     3.82718     0.59712    -1.47961
 C     3.25896    -0.69511    -1.46983
 O     1.87098    -0.65167    -1.21558
 C     4.22918     2.69876    -0.56971
 C     3.39770    -1.21159    -2.89514
 H    -0.38959    -1.02581     0.01715
 H    -0.39034     0.46948    -0.91309
 H    -0.40274     0.53687     0.86307
 H     1.93334    -0.60414     0.84220
 H     1.90478     1.93548     0.95111
 H     1.61661     2.01875    -0.79272
 H     4.14856     0.81032     0.54311
 H     3.75848    -1.31236    -0.69400
 H     3.78533     3.14580    -1.46964
 H     5.30555     2.60762    -0.76386
 H     4.08465     3.38963     0.26527
 H     2.97369    -2.21733    -2.99083
 H     2.85864    -0.55486    -3.59399
 H     4.44897    -1.23191    -3.20391
