   15
 
 P     0.00000     0.00000     0.00000
 O     1.60810     0.00000     0.00000
 O    -0.01392     1.71504     0.00000
 O    -0.67009    -0.00826     1.47097
 O    -0.90857    -0.04954    -1.35543
 O     0.00416    -1.64918    -0.07335
 H     1.94638     0.97137    -0.06376
 H    -0.84110     0.93957     1.80659
 H    -0.32482    -1.99875     0.83348
 C    -0.67978     2.34367    -1.06907
 C    -1.22139     1.20847    -1.96880
 H    -1.47748     2.97336    -0.63432
 H     0.05819     2.98814    -1.58074
 H    -0.75898     1.18709    -2.97216
 H    -2.32258     1.21038    -2.06305
