   17
 
 P     0.00000     0.00000     0.00000
 O     1.49292     0.00000     0.00000
 C    -1.58322     2.12200     0.00000
 C    -1.14508     1.90541    -1.47484
 O    -0.29006    -0.94119     1.42635
 O    -0.97127     1.11747     0.79051
 O    -0.82934    -1.19379    -0.78402
 O    -0.16450     0.90213    -1.46286
 H    -1.24809     3.09218     0.40255
 H    -2.67132     2.01354     0.14383
 C     0.18219    -0.62344     2.71690
 H    -1.98356     1.59020    -2.12081
 H    -0.66115     2.79747    -1.90902
 H    -0.93080    -1.99098    -0.15730
 H    -0.44879     0.13941     3.19097
 H     0.08020    -1.57794     3.25550
 H     1.23219    -0.30491     2.74759
