   12
 
 P     0.00000     0.00000     0.00000
 O     1.58573     0.00000     0.00000
 O    -0.43670     1.56189     0.00000
 O    -0.50918    -0.82980     1.06804
 O    -0.43869    -0.38672    -1.51267
 H     1.94898     0.58203    -0.75659
 C    -1.00939     1.95870    -1.26189
 C    -1.00926     0.73770    -2.21076
 H    -2.02549     2.32818    -1.02064
 H    -0.39041     2.80185    -1.62216
 H    -0.38976     0.87842    -3.11643
 H    -2.02530     0.41353    -2.51032
