   21
 
 P     0.00000     0.00000     0.00000
 C     1.86355     0.00000     0.00000
 C    -0.39754     1.82105     0.00000
 C    -0.52022    -0.64461    -1.63497
 N    -0.75708    -0.94075     1.03404
 C    -0.66966    -0.82722     2.50744
 C    -1.55088    -1.99505     3.00407
 H     2.24665    -1.04573    -0.03627
 H     2.29413     0.55050    -0.85976
 H     2.26073     0.45545     0.93344
 H     0.07898     2.36521    -0.83948
 H    -1.49843     1.97420    -0.07365
 H    -0.06820     2.29847     0.94874
 H    -1.63080    -0.56557    -1.75258
 H    -0.03910    -0.11137    -2.48301
 H    -0.27862    -1.73509    -1.71997
 H     0.35635    -0.94810     2.92376
 H    -1.07396     0.12758     2.91608
 H    -2.57324    -1.89247     2.62080
 H    -1.16910    -2.95089     2.62618
 H    -1.58099    -2.02870     4.09382
