   26
 
 C     0.00000     0.00000     0.00000
 C     1.39445     0.00000     0.00000
 C     2.09133     1.20684     0.00000
 C     1.38752     2.41013    -0.00074
 C    -0.00698     2.41333     0.01397
 C    -0.70088     1.20507     0.00720
 C     2.10803     3.72113     0.01377
 C     3.23796     3.84706    -0.87517
 C     4.11994     4.89255    -0.87098
 N     5.17191     4.96448    -1.75138
 C     5.41242     3.93827    -2.76324
 C     4.06933     6.05393     0.07212
 O     1.69966     4.59791     0.75224
 H    -0.54223    -0.94316    -0.00323
 H     1.93882    -0.94099     0.00431
 H     3.18018     1.21088     0.00598
 H    -0.54404     3.36278     0.03937
 H    -1.78846     1.20262     0.01285
 H     3.35193     3.03672    -1.58798
 H     5.81316     5.73523    -1.72381
 H     5.57919     2.94920    -2.29520
 H     4.55036     3.84990    -3.45240
 H     6.30333     4.18939    -3.36074
 H     4.95042     6.09564     0.72523
 H     3.97541     7.01237    -0.45531
 H     3.18704     5.99725     0.74650
