   14
 
 H     0.00000     0.00000     0.00000
 C     1.07870     0.00000     0.00000
 C     1.82321     1.11111     0.00000
 C     1.23470     2.44213     0.00003
 C     1.92215     3.59776    -0.00084
 C     3.37306     3.71556    -0.00194
 C     3.99954     4.89686    -0.00276
 H     1.49741    -0.99428    -0.00017
 H     2.91374     1.05509     0.00005
 H     0.14038     2.46736     0.00091
 H     1.37987     4.54873    -0.00083
 H     3.93672     2.78006    -0.00205
 H     3.49152     5.84829    -0.00274
 H     5.07395     4.99599    -0.00348
