   30
 
 C     0.00737    -0.05536    -0.09837
 C     1.53761    -0.06843    -0.00050
 C     2.14856     1.30545     0.08367
 C     1.94805     2.45924    -0.56119
 C     1.00323     2.91042    -1.64315
 C    -0.36410     3.22965    -1.01265
 C     2.15677    -0.82421    -1.18980
 C     1.90087    -0.84077     1.29420
 C     0.85326     1.90532    -2.79112
 C     1.56128     4.21798    -2.26083
 H    -0.33706     0.37803    -1.04456
 H    -0.43109     0.53009     0.71766
 H    -0.40289    -1.06918    -0.04028
 H     2.94676     1.32417     0.84411
 H     2.58730     3.29738    -0.23777
 H    -0.80805     2.34776    -0.54202
 H    -0.26966     3.99797    -0.23772
 H    -1.07120     3.59608    -1.76288
 H     1.90826    -0.35223    -2.14454
 H     3.24931    -0.84654    -1.11480
 H     1.80247    -1.85888    -1.22877
 H     2.98309    -0.95646     1.40321
 H     1.52542    -0.32007     2.18055
 H     1.46384    -1.84404     1.28920
 H     0.37947     0.97396    -2.46020
 H     1.82992     1.65182    -3.21776
 H     0.23412     2.31292    -3.59707
 H     2.55114     4.05459    -2.69742
 H     1.64872     5.01146    -1.51313
 H     0.90750     4.58753    -3.05604
