   35
 
 C     0.00000     0.00000     0.00000
 C     1.52331     0.00000     0.00000
 N     1.94348     1.39992     0.00000
 C     2.82414     1.86463    -0.95802
 C     3.20393     3.35507    -0.87510
 N     4.66437     3.48445    -0.76001
 H     5.13820     3.14332    -1.58526
 H     2.74711     3.84529     0.02256
 H     3.24341     3.63671    -3.03849
 H     0.80046     4.36668    -3.19425
 H     0.61428     4.09712    -1.46170
 H     0.98353     2.74139    -2.54285
 H     2.72277     6.06762    -3.00769
 H     4.02193     5.75621    -1.84460
 H     2.37509     6.03307    -1.27404
 C     2.69208     4.05762    -2.16071
 O    -0.73064     0.77706     0.55624
 C     2.96305     5.56071    -2.06780
 C     2.02727    -0.73803     1.27411
 C     3.55479    -0.81863     1.24367
 C     1.42635    -2.14335     1.32892
 C     1.19381     3.79903    -2.34160
 H     1.45756     2.01664     0.63723
 H     1.91847    -0.52417    -0.92006
 H     1.70849    -0.16208     2.17659
 H     1.86015    -2.72640     2.15004
 H     1.61197    -2.70076     0.40171
 H     0.34157    -2.12369     1.48509
 H     3.94373    -1.33112     2.13038
 H     4.01070     0.17743     1.21070
 H     3.91405    -1.36619     0.36280
 H     5.02628     3.00115     0.04668
 O    -0.48145    -1.02099    -0.74405
 H    -1.47083    -1.05405    -0.78428
 O     3.32155     1.11443    -1.77096
