   41
 
 C     0.00000     0.00000     0.00000
 C     1.51857     0.00000     0.00000
 N     1.95251     1.39792     0.00000
 C     3.14796     1.74264    -0.59542
 C     3.57014     3.21891    -0.49174
 N     4.90692     3.30402     0.11752
 O     3.84539     0.90162    -1.12402
 H     5.61708     2.90118    -0.47852
 H     2.86622     3.80313     0.15457
 H     4.33474     3.27714    -2.53390
 H     1.96673     2.57359    -2.73051
 H     1.39345     4.05705    -1.94643
 H     2.14585     4.12729    -3.53913
 H     3.10989     5.90247    -1.45187
 H     4.78544     5.45168    -1.13380
 H     5.22869     5.29905    -3.62465
 H     3.55679     5.76997    -3.95582
 H     4.65392     6.90377    -3.16283
 C     2.05904    -0.76918     1.24005
 C     1.53859    -0.17110     2.54620
 C     1.69388    -2.25831     1.11860
 C     2.58544    -3.12513     2.00595
 O    -0.74075     0.85679     0.40535
 H     1.35895     2.06010     0.47974
 H     1.90581    -0.50702    -0.93555
 H     3.17534    -0.66797     1.21357
 H     1.81230     0.88469     2.64829
 H     0.44645    -0.23475     2.62454
 H     1.95447    -0.69887     3.41320
 H     0.62932    -2.41541     1.37769
 H     1.78956    -2.59006     0.06463
 H     3.64324    -3.02118     1.73698
 H     2.48541    -2.85954     3.06404
 H     2.32584    -4.18560     1.90847
 H     4.94375     2.85313     1.01821
 O    -0.47362    -1.14168    -0.55199
 H    -1.46277    -1.19048    -0.57783
 C     3.57355     3.82125    -1.92265
 C     2.19431     3.63329    -2.56077
 C     3.95178     5.31112    -1.85557
 C     4.36855     5.84760    -3.22441
