   31
 
 C     0.00000     0.00000     0.00000
 C     1.52628     0.00000     0.00000
 N     2.02764     1.37674     0.00000
 C     1.70298     2.21748    -1.05159
 C     1.87694     3.72406    -0.86881
 N     1.88499     4.41042    -2.18562
 O     1.31197     1.72274    -2.09125
 H    -0.55133     6.02032    -0.53056
 H    -1.00131     4.55448    -1.40756
 H     0.06248     3.45273     0.38478
 H     1.04028     4.86768     0.80984
 H     2.85511     3.95406    -0.37968
 H     0.35256     5.58643    -3.12237
 H     1.37263     6.43126    -1.92641
 C     2.04868    -0.62721     1.30687
 C     2.30199     0.56000     2.25342
 C     2.42858     1.80729     1.35051
 O    -0.75613     0.89025     0.27733
 H     1.46838     0.67747     2.96780
 H     3.20991     0.40668     2.85757
 H     2.98305    -1.18574     1.11463
 H     1.33878    -1.35598     1.73211
 H     1.89385    -0.53531    -0.91897
 H     1.79096     2.63546     1.72283
 H     3.47732     2.17467     1.30861
 O    -0.45068    -1.23201    -0.34258
 H     1.70235     3.74211    -2.94008
 H    -1.43640    -1.29116    -0.40716
 C     0.68055     4.26595    -0.03914
 C    -0.13976     5.12325    -1.01485
 C     0.84987     5.47478    -2.14254
