   14
 
 C    -1.06768    -0.27110     0.09843
 C     0.36187     0.29057    -0.10374
 O     1.27985    -0.56299    -0.08953
 O     0.45102     1.53835    -0.25890
 H    -1.27423    -1.01725    -0.66962
 H    -1.12201    -0.78159     1.06083
 H    -1.81905     0.51532     0.05834
 H     2.35859     2.03204    -0.57706
 N     3.32523     2.37823    -0.61892
 C     4.20376     1.27224    -0.24413
 H     5.24763     1.59683    -0.26489
 H     3.99794     0.83108     0.73604
 H     4.08883     0.47113    -0.97024
 H     3.36657     3.07377     0.11694
