    9
 
 C     0.00000     0.00000     0.00000
 C     1.50100     0.00000     0.00000
 O     2.18414     1.00152     0.00000
 N     2.11849    -1.24138     0.00025
 H     1.61790    -2.09810     0.00052
 H     3.11710    -1.29899     0.00041
 H    -0.37575     1.03766    -0.00499
 H    -0.41372    -0.49730    -0.88651
 H    -0.41322    -0.48850     0.89171
