   13
 
 C    -0.00820    -0.00940     0.00063
 C     1.45334     0.25546    -0.00050
 O     1.96279     1.35227     0.00758
 N     2.36521    -0.83411    -0.01024
 C     1.98255    -2.18878    -0.01940
 O     0.82436    -2.55354    -0.01880
 N     3.02754    -3.09902    -0.02833
 H    -0.32271    -0.60784     0.87435
 H    -0.32564    -0.59565    -0.88019
 H    -0.57871     0.93277     0.00802
 H     3.35337    -0.58413    -0.01048
 H     3.98803    -2.84436    -0.03006
 H     2.81230    -4.07767    -0.03521
