   10
 
 O     0.00000     0.00000     0.00000
 C     1.22200     0.00000     0.00000
 C     2.00716     1.28630     0.00000
 C     2.00592    -1.27612     0.00163
 H     1.41302     2.11052    -0.42342
 H     2.26379     1.57837     1.02822
 H     2.93873     1.21482    -0.57043
 H     1.38726    -2.12152     0.34093
 H     2.34787    -1.52125    -1.01403
 H     2.88909    -1.22645     0.64812
