    9
 
 C     0.00000     0.00000     0.00000
 C     1.50053     0.00000     0.00000
 C     2.11519     1.29492     0.00000
 C     2.64382     2.38379     0.00000
 O     2.14739    -1.01952    -0.00004
 H    -0.40169     0.52088     0.88036
 H    -0.40113     0.50370    -0.89051
 H    -0.40054    -1.02548     0.00979
 H     3.09374     3.31178     0.00009
