   13
 
 C    -0.00318     0.07524    -0.12035
 C     1.48138     0.00243    -0.03263
 O     1.98033     1.28856    -0.05044
 C     3.25202     1.60728     0.37816
 C     3.59827     2.95433    -0.15225
 H     2.79074     3.68247     0.02833
 H     3.75836     2.92345    -1.24216
 H     4.51859     3.33739     0.31691
 O     3.88135     0.89603     1.10097
 O     2.18939    -0.95785    -0.00976
 H    -0.42995    -0.89028    -0.43549
 H    -0.33386     0.84721    -0.83351
 H    -0.44206     0.33271     0.85746
