   26
 
 C     0.00000     0.00000     0.00000
 C     2.51728     0.00000     0.00000
 C     1.25832     2.17997     0.00000
 C     1.25867     0.72669     2.05537
 C     0.00146     0.00059     1.54050
 C     2.51603     0.00083     1.54046
 C     2.51576     1.45274    -0.51286
 C     0.00098     1.45274    -0.51256
 C     1.25865     2.17872     1.54042
 C     1.25886    -0.72553    -0.51315
 H     2.14219     2.71840     1.92216
 H     0.37511     2.71826     1.92238
 H     1.25924    -1.77545    -0.17369
 H     1.25929    -0.75506    -1.61619
 H    -0.02419    -1.03447     1.92211
 H    -0.90799     0.49556     1.92196
 H     3.42515     0.49627     1.92221
 H     2.54197    -1.03417     1.92217
 H     3.42500     1.97768    -0.17316
 H     2.54161     1.46734    -1.61589
 H    -0.02481     1.46780    -1.61562
 H    -0.90833     1.97747    -0.17280
 H    -0.90783    -0.52452    -0.37087
 H     3.42523    -0.52390    -0.37122
 H     1.25867     3.22855    -0.37042
 H     1.25871     0.72734     3.16750
