    8
 
 C     0.00000     0.00000     0.00000
 C     1.38136     0.00000     0.00000
 C     2.12799     1.16269     0.00000
 H     1.68439     2.14145     0.00000
 H     3.20229     1.15946    -0.00029
 H     1.90761    -0.96034     0.00000
 H    -0.57780    -0.90573    -0.00000
 H    -0.58399     0.90210     0.00000
