   19
 
 C     0.00000     0.00000     0.00000
 C     1.39635     0.00000     0.00000
 C     2.08954     1.20826     0.00000
 C     1.39194     2.41496    -0.00256
 C    -0.00214     2.41373    -0.00232
 C    -0.69988     1.20845    -0.00037
 C    -0.73695    -1.27567    -0.00552
 C    -0.81362    -1.94706    -1.33581
 C    -1.28809    -1.77309     1.10351
 H     1.93888    -0.94299     0.00487
 H     3.17780     1.20858     0.00289
 H     1.93478     3.35750    -0.00359
 H    -0.54681     3.35588    -0.00342
 H    -1.78800     1.20391     0.00278
 H    -1.37383    -2.89046    -1.30097
 H     0.18989    -2.17430    -1.72509
 H    -1.30593    -1.29966    -2.07714
 H    -1.83221    -2.70226     1.13716
 H    -1.23154    -1.28500     2.06379
