   30
 
 O     0.00000     0.00000     0.00000
 C     1.41266     0.00000     0.00000
 C     1.89889     1.45468     0.00000
 C     3.40590     1.51138    -0.26385
 C     3.90258     2.96384    -0.24663
 C    -0.67510    -0.32900     1.20507
 C    -0.40508    -1.79154     1.58113
 C    -0.29090     0.61874     2.34596
 C    -2.14434    -0.12958     0.79740
 H    -2.40857    -0.78942    -0.03724
 H     1.65687    -0.50943    -0.95304
 H     1.84038    -0.57874     0.83210
 H     1.34425     2.02385    -0.77081
 H     1.65176     1.94112     0.95975
 H     3.64106     1.04596    -1.23943
 H     3.95000     0.91895     0.49502
 H     3.35638     3.55897    -1.00287
 H     3.67410     3.43149     0.72931
 C     5.40585     3.02812    -0.51763
 H     0.61771    -1.94190     1.93737
 H    -0.54895    -2.44284     0.71079
 H    -1.08442    -2.12830     2.36935
 H     0.74876     0.47966     2.65713
 H    -0.40873     1.66365     2.03640
 H    -0.92422     0.45650     3.22325
 H    -2.31600     0.89880     0.45836
 H    -2.81914    -0.33698     1.63062
 H     5.97318     2.47057     0.23566
 H     5.65439     2.60578    -1.49763
 H     5.76835     4.06175    -0.50397
