   26
 
 H     2.10814    -0.48457    -0.60905
 N     2.51080    -0.02077     0.19484
 C     1.94664     1.32266     0.40143
 C     1.65928     2.00134    -0.93395
 O     1.87992     1.57757    -2.03678
 C     2.88280     2.22562     1.22681
 C     3.09169     1.68969     2.64936
 C     4.57179     1.39225     2.95559
 N     5.07480     0.21395     2.21800
 C     5.80606     0.45730     1.03506
 N     5.87803    -0.68580     0.18466
 N     6.33346     1.60864     0.77351
 H     0.96681     1.19329     0.94377
 H     4.35173    -0.50642     2.12448
 H     6.59999    -0.67914    -0.51412
 H     5.76714    -1.59291     0.60307
 H     6.94408     1.73556    -0.01059
 H     5.20663     2.28624     2.74678
 H     4.70135     1.16026     4.03790
 H     2.71465     2.42369     3.38677
 H     2.48512     0.77585     2.81211
 H     3.85968     2.34601     0.70989
 H     2.45702     3.24971     1.26866
 H     3.51334     0.00017     0.08885
 O     1.05420     3.19906    -0.74635
 H     0.84083     3.67517    -1.58734
