   16
 
 H     0.16110    -0.01958     0.08213
 N     0.30512     0.24148    -0.88713
 C     0.78881     1.62107    -0.99303
 C     0.91968     1.92122    -2.48162
 O     1.60599     1.35693    -3.28872
 C     2.16899     1.89368    -0.35141
 H     2.95887     1.27026    -0.83306
 C     2.13274     1.60270     1.11278
 H     0.92392    -0.42457    -1.32715
 H     2.49193     2.94416    -0.53527
 O     3.08045     2.32296     1.75941
 O     1.41488     0.84284     1.71067
 H     0.01141     2.29341    -0.52779
 O     0.15392     2.98646    -2.80928
 H     0.16401     3.20542    -3.77502
 H     3.11558     2.15135     2.73522
