   18
 
 C     0.00000     0.00000     0.00000
 C     1.48113     0.00000     0.00000
 C     1.90076     1.31464     0.00000
 C     0.73969     2.17503     0.00015
 C    -0.39270     1.40443     0.00016
 C     2.32764    -1.13841    -0.00037
 C     1.97368    -2.44881    -0.00072
 C     0.67206    -3.02900    -0.00079
 C    -0.54854    -2.43146    -0.00062
 C    -0.86279    -1.04290    -0.00026
 H     2.90927     1.67149    -0.00003
 H     0.79529     3.24690     0.00021
 H    -1.40997     1.73476     0.00027
 H     3.40424    -0.90050    -0.00046
 H     2.79155    -3.18555    -0.00103
 H     0.67975    -4.13226    -0.00098
 H    -1.42857    -3.09212    -0.00072
 H    -1.94002    -0.81067    -0.00031
