   27
 
 C     0.00000     0.00000     0.00000
 C     1.39461     0.00000     0.00000
 C     2.09299     1.20550     0.00000
 C     1.38630     2.40730    -0.00330
 C    -0.00801     2.41296    -0.00439
 C    -0.70177     1.20451    -0.00173
 C     2.13410     3.70765    -0.02715
 O     1.75395     4.39971    -1.21269
 C     2.69696     4.58687    -2.18179
 C     2.14599     5.48372    -3.23272
 O     1.58564     4.47215     1.03820
 C     2.04274     5.74529     1.21452
 C     1.27418     6.38545     2.31808
 O     3.77167     4.05196    -2.13913
 O     2.93414     6.21102     0.55893
 H    -0.54226    -0.94383     0.00014
 H     1.93878    -0.94231    -0.00101
 H     3.18293     1.20481    -0.00457
 H    -0.54400     3.36235    -0.00806
 H    -1.78936     1.20256    -0.00266
 H     3.24006     3.65241     0.07645
 H     2.48085     6.52107    -3.05773
 H     2.49942     5.18356    -4.23139
 H     1.04469     5.49523    -3.24255
 H     1.83640     7.22708     2.75154
 H     0.31412     6.77841     1.94622
 H     1.03771     5.67413     3.12577
