   14
 
 C     0.00000     0.00000     0.00000
 C     2.78004     0.00000     0.00000
 C     0.69612     1.20812     0.00000
 C     0.69318    -1.21016    -0.00610
 C     2.08905     1.21250     0.00379
 C     2.08493    -1.21398    -0.01240
 H    -1.09016     0.00117     0.00355
 H     0.15069     2.15106    -0.00017
 H     0.14635    -2.15217    -0.00929
 H     2.62641     2.16288     0.00338
 H     2.63188    -2.15909    -0.02857
 C     4.24112    -0.06149    -0.01096
 O     4.94921    -0.76498    -0.65062
Br     5.13545     1.15436     1.25338
