   16
 
 C     0.00000     0.00000     0.00000
 C     1.39499     0.00000     0.00000
 C     2.08939     1.20826     0.00000
 C     1.39328     2.41645     0.00079
 C    -0.00048     2.41855     0.00234
 C    -0.69662     1.21257     0.00286
 C    -0.82922    -1.23426    -0.00019
 N    -0.20554    -2.46852    -0.00617
 O    -2.04623    -1.20236     0.00467
 H     1.95770    -0.93093     0.00016
 H     3.17768     1.20836    -0.00060
 H     1.93989     3.35850     0.00016
 H    -0.54591     3.36083     0.00331
 H    -1.79209     1.20425     0.00450
 H     0.77878    -2.59016    -0.01080
 H    -0.76648    -3.29845    -0.00631
