   15
 
 C     0.00000     0.00000     0.00000
 C     1.39200     0.00000     0.00000
 C     2.12661     1.19727     0.00000
 C     1.50097     2.44058    -0.00000
 C     0.11032     2.47308     0.00001
 C    -0.60320     1.24790    -0.00004
 O    -1.96500     1.48544    -0.00006
 C    -2.10397     2.86965    -0.00010
 H    -3.12797     3.17088    -0.00015
 H    -0.70251     4.55950    -0.00004
 C    -0.90209     3.50932    -0.00002
 H    -0.58028    -0.91618     0.00001
 H     1.92702    -0.94946     0.00002
 H     3.21434     1.14581    -0.00001
 H     2.07790     3.36160    -0.00000
