   21
 
 O     0.03782    -0.06242    -0.04192
 S     0.88893     1.06356     0.26791
 O     0.33954     2.36734     0.56092
 C     2.08297     1.24659    -1.07818
 C     1.39398     1.66912    -2.33208
 C     1.24164     3.02691    -2.62580
 C     0.61583     3.41912    -3.80647
 C     0.13908     2.46020    -4.69861
 C     0.28199     1.10577    -4.40293
 C     0.90727     0.70885    -3.22324
 C     1.91272     0.59324     1.65558
 H     2.86121     1.98273    -0.79615
 H     2.62313     0.29216    -1.23545
 H     1.59349     3.78189    -1.92353
 H     0.49322     4.47726    -4.02890
 H    -0.34998     2.76838    -5.61984
 H    -0.10162     0.35546    -5.09138
 H     0.99745    -0.35129    -2.98904
 H     1.29395     0.42137     2.54843
 H     2.45812    -0.33848     1.47819
 H     2.63153     1.37212     1.92746
