   14
 
 C     0.00000     0.00000     0.00000
 C     2.78313     0.00000     0.00000
 C     0.69631     1.20947     0.00000
 C     0.69353    -1.20900     0.00010
 C     2.08847     1.21134    -0.00004
 C     2.08684    -1.20975     0.00008
 C     4.26215    -0.01017    -0.00007
 O     4.89326    -1.04059     0.00167
 H    -1.08945     0.00142    -0.00011
 H     0.14970     2.15036     0.00006
 H     0.14847    -2.15116     0.00019
 H     2.63023     2.15644    -0.00002
 H     2.64341    -2.15117     0.00025
 H     4.77986     0.95874    -0.00184
