   27
 
 C     0.00000     0.00000     0.00000
 C     1.39226     0.00000     0.00000
 C     2.08858     1.20868     0.00000
 C     1.39648     2.41913    -0.00172
 C     0.00313     2.42634    -0.00592
 C    -0.68891     1.21526    -0.00634
 C    -2.16372     1.16845     0.00332
 O    -2.64718     2.33822    -0.54317
 C    -3.98161     2.55724    -0.81176
 C    -4.16775     3.96424    -1.21397
 C    -3.09644     4.76292    -1.61509
 C    -3.32908     6.08386    -1.99192
 C    -4.62432     6.59956    -1.96581
 C    -5.69306     5.79728    -1.56627
 C    -5.46813     4.47574    -1.19054
 O    -2.86866     0.29824     0.41890
 O    -4.81175     1.70088    -0.73649
 H    -0.55397    -0.94205     0.00965
 H     1.93646    -0.94285     0.00355
 H     3.17801     1.20667     0.00277
 H     1.94438     3.35924     0.00091
 H    -0.54194     3.37182    -0.00443
 H    -2.08406     4.35539    -1.63915
 H    -2.49919     6.71268    -2.30787
 H    -4.80278     7.63329    -2.26001
 H    -6.70306     6.20324    -1.54954
 H    -6.30060     3.83769    -0.88215
