   19
 
 C     0.00000     0.00000     0.00000
 C     1.39777     0.00000     0.00000
 C     2.09492     1.20588     0.00000
 C     1.40167     2.41504    -0.00068
 C     0.00761     2.41694     0.00002
 C    -0.69342     1.21356    -0.00051
 C    -0.74708    -1.28689     0.00197
 S    -1.00179    -1.72356     1.77414
 C    -1.91723    -3.29231     1.63896
 H     1.94349    -0.94163     0.00577
 H     3.18314     1.20249     0.00194
 H     1.94735     3.35585    -0.00027
 H    -0.53504     3.36019     0.00228
 H    -1.78175     1.22015     0.00518
 H    -0.19186    -2.09277    -0.51287
 H    -1.72175    -1.20454    -0.51376
 H    -2.87396    -3.16811     1.12395
 H    -1.33819    -4.06400     1.12377
 H    -2.12426    -3.64830     2.65640
