   14
 
 C     0.00000     0.00000     0.00000
 C     1.38856     0.00000     0.00000
 C     2.11195     1.20176     0.00000
 C     1.46402     2.43302    -0.00008
 C     0.07543     2.44529    -0.00060
 C    -0.65840     1.23272    -0.00099
 N    -2.05962     1.38675    -0.00195
 C    -2.42000     2.63117    -0.00237
 S    -1.04218     3.79927    -0.00172
 H    -3.44790     2.97380    -0.00304
 H    -0.57636    -0.92476     0.00011
 H     1.92825    -0.94738     0.00010
 H     3.20158     1.16679     0.00012
 H     2.03800     3.35873     0.00027
