   14
 
 C     0.00000     0.00000     0.00000
 C     2.78672     0.00000     0.00000
 C     0.69805     1.20665     0.00000
 C     0.69477    -1.21011    -0.00062
 C     2.09153     1.21113     0.00177
 C     2.08573    -1.21335    -0.00379
 H    -1.09011     0.00047     0.00126
 H     0.15366     2.15043    -0.00071
 H     0.14797    -2.15234    -0.00083
 H     2.62208     2.16673    -0.00230
 H     2.63418    -2.15923    -0.01192
 C     4.24377    -0.08140    -0.01963
 O     4.94213    -0.98902    -0.33558
Cl     5.06495     1.39260     0.54383
