   12
 
 C     0.00000     0.00000     0.00000
 C     1.39900     0.00000     0.00000
 C     2.09850     1.21157     0.00000
 C     1.39900     2.42314     0.00000
 C    -0.00000     2.42314     0.00000
 C    -0.69950     1.21157     0.00000
 H    -0.54200    -0.93877     0.00000
 H    -0.54200     3.36191    -0.00000
 H     1.94100    -0.93877     0.00000
 H    -1.78350     1.21157    -0.00000
 H     3.18250     1.21157     0.00000
 H     1.94100     3.36191     0.00000
