   17
 
 C     0.00041     0.00207     0.00183
 C    -1.09920    -0.82106    -0.24539
 C    -1.00156    -2.19529    -0.03895
 C     0.19389    -2.75026     0.41501
 C     1.29273    -1.92889     0.66094
 C     1.19704    -0.55411     0.45488
 C    -0.11357     1.49226    -0.19944
 N    -0.61424     2.19744     0.99836
 H    -2.03287    -0.39149    -0.60267
 H    -1.85910    -2.83621    -0.23383
 H     0.26994    -3.82437     0.57476
 H     2.22741    -2.36162     1.01302
 H     2.05811     0.08323     0.64452
 H     0.87041     1.93722    -0.47452
 H    -0.79513     1.72973    -1.04900
 H    -1.53356     1.87687     1.25862
 H     0.00067     2.06911     1.78645
