   21
 
 C     0.00000     0.00000     0.00000
 C     1.39238     0.00000     0.00000
 C     2.09229     1.20653     0.00000
 C     1.39965     2.41565    -0.00037
 C     0.00689     2.41740    -0.00068
 C    -0.69732     1.20961    -0.00014
 C    -2.17691     1.27863    -0.00042
 C    -2.96428    -0.01223     0.01582
 C    -4.46901     0.28560     0.01541
 C    -5.23238    -0.93906     0.03824
 N    -5.84453    -1.92044     0.05686
 O    -2.75200     2.34176    -0.01264
 H    -0.53132    -0.95095    -0.00010
 H     1.93580    -0.94326     0.00009
 H     3.18185     1.20292     0.00017
 H     1.94510     3.35794    -0.00052
 H    -0.54426     3.36289    -0.00139
 H    -2.69276    -0.63216    -0.86438
 H    -2.68871    -0.61132     0.90929
 H    -4.73063     0.93730     0.88783
 H    -4.73642     0.90839    -0.87595
