   29
 
 C     0.00000     0.00000     0.00000
 C     1.54678     0.00000     0.00000
 C     2.20458     1.39618     0.00000
 C     1.20960     2.54754     0.20131
 C     0.10574     2.43122    -0.82195
 C    -0.53345     1.05472    -0.93392
 C    -1.35162     2.23789    -0.41893
 C    -1.79583     2.32923     1.01631
 C    -2.39259     2.79825    -1.36411
 C     2.08705    -0.87031    -1.14323
 O     1.97684    -0.55737     1.23740
 H    -0.34814     0.17176     1.03988
 H    -0.38725    -0.99738    -0.27283
 H     2.75677     1.55123    -0.94480
 H     2.96914     1.41936     0.80650
 H     1.72903     3.51979     0.11231
 H     0.81114     2.52193     1.23452
 H     0.30673     2.99706    -1.73439
 H    -0.78071     0.66626    -1.92445
 H    -1.05404     1.93023     1.72089
 H    -1.98062     3.37292     1.30366
 H    -2.72596     1.76829     1.17645
 H    -2.59387     3.85446    -1.14507
 H    -2.08312     2.73828    -2.41381
 H    -3.34031     2.25278    -1.27325
 H     1.81011    -0.45090    -2.11638
 H     3.18061    -0.93557    -1.09880
 H     1.69629    -1.89089    -1.09835
 H     1.72085    -1.49048     1.32150
