   28
 
 C     0.00000     0.00000     0.00000
 C     1.39398     0.00000     0.00000
 C     2.09286     1.20476     0.00000
 C     1.39799     2.41644     0.00268
 C     0.00152     2.41493     0.00419
 C    -0.69458     1.20839     0.00225
 C     2.14884     3.71164     0.02032
 C     2.49530     4.09304     1.47165
 C     3.21686     5.40456     1.49052
 C     4.60105     5.44476     1.30804
 C     5.26972     6.66645     1.31191
 C     4.56013     7.85191     1.49664
 C     3.17855     7.81307     1.67672
 C     2.50674     6.59287     1.67385
 H    -0.54454    -0.94107    -0.00202
 H     1.93703    -0.94285    -0.00149
 H     3.18051     1.20193    -0.00098
 H    -0.54369     3.35611     0.00758
 H    -1.78271     1.20941     0.00211
 H     3.07546     3.64299    -0.58517
 H     1.55914     4.52392    -0.45158
 H     1.56908     4.13409     2.08022
 H     3.10795     3.29365     1.93610
 H     5.15704     4.52125     1.16318
 H     6.34820     6.69552     1.17073
 H     5.08335     8.80502     1.50012
 H     2.62341     8.73773     1.82080
 H     1.42845     6.56650     1.81431
