   21
 
 C     0.00000     0.00000     0.00000
 C     1.53374     0.00000     0.00000
 C     2.07802     1.44980     0.00000
 C     2.19858     1.84822     1.48828
 C     1.72104     0.61262     2.29058
 C    -0.58369     0.65015     1.23479
 C     2.02466    -0.56901     1.34686
 O    -1.69711     1.11635     1.20072
 H    -0.38736    -1.03729    -0.06679
 H    -0.39084     0.51065    -0.90418
 H     1.91693    -0.57579    -0.86301
 H     1.41538     2.13345    -0.55119
 H     3.05696     1.49781    -0.50129
 H     3.23886     2.10053     1.74546
 H     1.59832     2.74063     1.71976
 H     2.25440     0.52645     3.25571
 H     1.51128    -1.49456     1.63657
 H     3.10059    -0.79899     1.32021
 C     0.20634     0.67272     2.52424
 H    -0.06288     1.57926     3.10466
 H    -0.12290    -0.17989     3.15282
