   22
 
 C     0.00000     0.00000     0.00000
 C     2.58297     0.00000     0.00000
 C     2.06205     1.45035     0.00000
 C     0.52092     1.45035     0.00000
 C     0.52092    -0.72517    -1.25604
 C     0.52092    -0.72517     1.25604
 C     2.06205    -0.72517     1.25604
 C     2.06205    -0.72517    -1.25604
 H     3.69401    -0.00000     0.00000
 H    -1.11104    -0.00000    -0.00000
 H     2.44736     1.98915    -0.88219
 H     2.44736     1.98915     0.88219
 H     0.13561     1.98915     0.88219
 H     0.13561     1.98915    -0.88219
 H     0.13561    -0.23057    -2.16375
 H     0.13561    -1.75858    -1.28156
 H     0.13561    -1.75858     1.28156
 H     0.13561    -0.23057     2.16375
 H     2.44736    -0.23057     2.16375
 H     2.44736    -1.75858     1.28156
 H     2.44736    -1.75858    -1.28156
 H     2.44736    -0.23057    -2.16375
