   10
 
 C     0.00000     0.00000     0.00000
 C     1.49800     0.00000     0.00000
 C     0.72581     1.30928     0.00000
 C    -0.24327     0.99291    -1.12395
 H    -0.70065    -0.55647     0.58862
 H     2.03022    -0.29716     0.90724
 H     2.05916    -0.30956    -0.87888
 H     0.84736     2.18220     0.58022
 H    -1.19231     1.52065    -1.16231
 H     0.12090     0.79077    -2.12736
