   21
 
 C     0.00000     0.00000     0.00000
 C     1.53905     0.00000     0.00000
 C     2.10254     1.44239     0.00000
 C     2.25733     1.83204     1.48897
 C     1.74486     0.61206     2.28603
 C    -0.58758     0.79726     1.17336
 C     2.01995    -0.57814     1.34917
 H    -0.36370    -1.04537     0.03935
 H    -0.37778     0.41026    -0.95516
 H     1.91957    -0.58185    -0.85979
 H     1.43877     2.13559    -0.53641
 H     3.07307     1.48027    -0.51860
 H     3.31146     2.03789     1.73642
 H     1.70053     2.74861     1.73526
 H     2.23587     0.51341     3.27233
 H     1.48323    -1.49116     1.64233
 H     3.09042    -0.83351     1.32563
 C     0.23785     0.71362     2.43821
 O    -0.28165     0.75057     3.52494
 H    -1.62418     0.46278     1.38394
 H    -0.67673     1.87029     0.90084
