   24
 
 C    -0.03082     0.03945    -0.10596
 C     1.35326    -0.07994    -0.12436
 C     2.16328     1.02824     0.12023
 C     1.58080     2.26867     0.37488
 C     0.19795     2.41234     0.39293
 C    -0.61571     1.29143     0.16440
 C    -2.78720     2.28197     0.87603
 C    -2.31822     2.88568     2.05349
 C    -3.15088     3.74584     2.76107
 C    -4.44792     4.00329     2.32131
 C    -4.91741     3.39047     1.16002
 C    -4.10125     2.53347     0.43319
 N    -2.01577     1.38392     0.12614
 H    -0.65388    -0.83038    -0.28917
 H     1.80854    -1.04853    -0.32911
 H     3.24417     0.92499     0.10727
 H     2.21411     3.13732     0.55400
 H    -0.24771     3.39105     0.55718
 H    -1.32165     2.66477     2.42806
 H    -2.78587     4.21572     3.67408
 H    -5.09202     4.67323     2.88226
 H    -5.93340     3.58449     0.81761
 H    -4.47117     2.06838    -0.47574
 H    -2.51058     0.69823    -0.42928
