   21
 
 C     0.00000     0.00000     0.00000
 C     1.56587     0.00000     0.00000
 C     2.19120     1.43707     0.00000
 O     3.55832     1.20879    -0.02603
 C     4.44572     2.27439    -0.03197
 C     5.85608     1.59178    -0.06414
 C     7.04378     2.61249    -0.04076
 F    -0.49995     0.62990     1.05431
 F    -0.49987     0.59991    -1.07160
 F    -0.50265    -1.22573     0.01746
 F     2.02054    -0.67370     1.05477
 F     2.01915    -0.67252    -1.05629
 F     1.84525     2.14731     1.06614
 F     1.80866     2.16136    -1.04402
 F     4.27328     3.04542     1.03403
 F     4.23562     3.06523    -1.07639
 F     5.95887     0.75220     0.96431
 F     5.94166     0.81954    -1.14557
 F     7.04120     3.35745     1.05614
 F     7.00264     3.45050    -1.06755
 F     8.22375     2.01190    -0.08841
