   13
 
 C    -0.01745     0.00090    -0.00118
 C     1.48653     0.01200    -0.00243
 C     2.05434     1.42640     0.12157
 C     3.58272     1.40871     0.11221
 H     3.98972     2.42253     0.20639
 H     3.97744     0.98402    -0.81804
 H     3.98654     0.81690     0.94183
 H     1.68461     2.06029    -0.70815
 H     1.69311     1.90252     1.05422
 H     1.85739    -0.48141    -0.92602
 H     1.85995    -0.63568     0.81947
 H    -0.54250     0.96000     0.08961
 O    -0.63722    -1.02977    -0.09596
