   30
 
 C    -0.00448     0.00188     0.00880
 C     1.53203     0.04922    -0.07582
 C     2.02433     1.50212    -0.09580
 C     1.41425     2.25701    -1.28389
 C    -0.11790     2.20999    -1.21779
 C    -0.61096     0.75753    -1.18962
 C    -0.51035    -1.45200     0.01043
 C    -0.18021    -2.16796     1.32616
 C    -0.57315    -3.64977     1.25045
 C    -0.20022    -4.38089     2.54037
 H    -0.32986     0.50278     0.95002
 H     1.87655    -0.47928    -0.98322
 H     1.97897    -0.48842     0.77925
 H     3.12705     1.52763    -0.15468
 H     1.75616     2.00495     0.85135
 H     1.76478     3.30450    -1.29123
 H     1.76346     1.80851    -2.23270
 H    -0.55220     2.74038    -2.08457
 H    -0.47436     2.74747    -0.31965
 H    -1.71365     0.73428    -1.13425
 H    -0.33824     0.24934    -2.13269
 H    -1.60490    -1.46614    -0.15191
 H    -0.07353    -2.00189    -0.84356
 H    -0.70315    -1.67669     2.16700
 H     0.89925    -2.07978     1.55051
 H    -1.65851    -3.74425     1.06078
 H    -0.07116    -4.12895     0.38800
 H     0.87567    -4.31956     2.73861
 H    -0.72025    -3.95721     3.40621
 H    -0.46362    -5.44283     2.48479
