    8
 
 C     0.00000     0.00000     0.00000
 C     1.54497     0.00000     0.00000
 F     1.98908     1.23635     0.00000
 F     2.06215    -0.60324     1.06208
 F    -0.51073    -1.22473     0.01464
 F    -0.50485     0.60166    -1.06947
 F    -0.50550     0.62667     1.05463
 F     2.06156    -0.60274    -1.06267
