    8
 
 C     0.00000     0.00000     0.00000
 C     1.53600     0.00000     0.00000
 H     1.92520     1.01922     0.00000
 H     1.92520    -0.50961     0.88267
 H     1.92520    -0.50961    -0.88267
 H    -0.38920     0.50961    -0.88267
 H    -0.38920    -1.01922    -0.00000
 H    -0.38920     0.50961     0.88267
