    9
 
 C     0.00000     0.00000     0.00000
 C     1.52172     0.00000     0.00000
 H     1.94235     1.01526     0.00000
 H     1.94080    -0.52676     0.86872
 H     1.91206    -0.50463    -0.89473
 H    -0.38551     0.49021    -0.91460
 H    -0.38537    -1.03768    -0.01423
 S    -0.60503     0.87109     1.47904
 H    -1.89201     0.72231     1.21588
