   13
 
 C     0.00000     0.00000     0.00000
 O     1.35807     0.00000     0.00000
 C     2.10347     1.13434     0.00000
 O     1.89795     1.91555     1.14110
 C     2.27097     1.37209     2.36799
 F     1.77754     2.14036     3.30048
 F     3.58646     1.33137     2.49345
 F     1.80688     0.14343     2.52576
 F     3.36594     0.75361    -0.11157
 F     1.82159     1.92073    -1.02691
 F    -0.39512    -1.24435     0.19572
 F    -0.49348     0.42330    -1.15209
 F    -0.49822     0.76300     0.96013
