   14
 
 C     0.00000     0.00000     0.00000
 C     1.55421     0.00000     0.00000
 C     2.21108     1.40838     0.00000
 C     3.76488     1.38012    -0.21262
 F    -0.41601    -1.23705     0.14973
 F     4.31572     2.57490    -0.05531
 F    -0.52175     0.46204    -1.12765
 F     4.37378     0.56842     0.64071
 F    -0.52446     0.71881     0.98280
 F     4.09536     0.96853    -1.42869
 F     1.98818    -0.69682    -1.05281
 F     1.93395     2.03537     1.14396
 F     1.99220    -0.69232     1.05385
 F     1.65455     2.17132    -0.94193
