   10
 
 I     0.00000     0.00000     0.00000
Br     3.94626     0.00000     0.00000
 C     0.89265     1.91420     0.00000
 C     3.31048     0.48371    -1.73035
 H     2.07468     1.71971    -2.91739
 H     3.75385    -0.12709    -2.50421
 H     2.27779     3.29427    -0.79134
 H     0.47515     2.54456     0.77497
 C     2.42593     1.45981    -1.90877
 C     1.85023     2.28219    -0.84782
