   10
 
 N     0.00000     0.00000     0.00000
 C     1.37000     0.00000     0.00000
 C    -0.47198     1.31097     0.00000
 C     1.79017     1.31658     0.00000
 C     0.64788     2.15506     0.00000
 H     1.93770    -0.91396     0.00000
 H    -1.51427     1.54278    -0.00000
 H     2.80704     1.65007    -0.00000
 H     0.62887     3.21905     0.00000
 H    -0.59253    -0.79549    -0.00000
