    8
 
 C     0.00000     0.00000     0.00000
 C     1.35600     0.00000     0.00000
 C     1.47246     1.51353     0.00000
 C    -0.11646     1.51353     0.00000
Br    -1.24874    -1.33911    -0.00000
Br     2.60474    -1.33911     0.00000
 O     2.37220     2.28469     0.00000
 O    -1.01620     2.28469    -0.00000
