   11
 
 C     0.00000     0.00000     0.00000
 C     1.38400     0.00000     0.00000
 P     2.33289     1.45013     0.00000
 C     1.13867     2.71417     0.00013
 C    -0.24925     2.44914     0.00039
 C    -0.78991     1.16116     0.00015
 H     1.47448     3.77654     0.00005
 H    -0.93480     3.30525     0.00060
 H    -1.87798     1.04936     0.00028
 H    -0.52320    -0.96854    -0.00017
 H     1.91949    -0.98318    -0.00001
