   12
 
 C     0.00000     0.00000     0.00000
 C     1.39215     0.00000     0.00000
 I     2.43392     1.86204     0.00000
 C     2.11975    -1.18677    -0.00038
 C     1.43201    -2.39999    -0.00118
 C     0.03848    -2.41799    -0.00171
 C    -0.67466    -1.22062    -0.00105
 H    -0.57362     0.92678     0.00057
 H    -0.49328    -3.36855    -0.00258
 H    -1.76407    -1.23473    -0.00163
 H     3.20967    -1.19160    -0.00018
 H     1.98915    -3.33635    -0.00144
