   26
 
 C     0.00000     0.00000     0.00000
 C     1.51470     0.00000     0.00000
 C     1.95358     1.46283     0.00000
 C     0.56856     2.20644    -0.04254
 C    -0.09814     1.98119    -1.42519
 C    -0.43412     0.46323    -1.42121
 C    -0.30523     1.27178     0.84626
 C     2.85254     1.78329    -1.19341
 C     2.69748     1.80786     1.29524
 C     2.29983    -1.07099     0.00073
 H    -0.47155    -0.92549     0.33868
 H     0.62438     3.25104     0.26473
 H    -1.00855     2.59109    -1.52084
 H     0.55359     2.26224    -2.26086
 H    -1.50451     0.28349    -1.58582
 H     0.10918    -0.08101    -2.20552
 H     0.02870     1.19857     1.88508
 H    -1.36469     1.54436     0.85868
 H     2.97067     2.86395    -1.32329
 H     2.45104     1.37126    -2.12648
 H     3.85152     1.35061    -1.06241
 H     2.09099     1.59560     2.18232
 H     2.97096     2.86763     1.32402
 H     3.61856     1.22100     1.38884
 H     3.37585    -1.01937    -0.00529
 H     1.92875    -2.08202     0.00626
