   10
 
 C     0.00000     0.00000     0.00000
 S     1.81000     0.00000     0.00000
 S     2.26152     1.98735     0.00000
 C     2.23424     2.58483     1.71362
 H     2.53428     3.64202     1.70010
 H     2.93870     2.04609     2.35783
 H     1.23863     2.52366     2.16465
 H    -0.42284     0.52598    -0.86510
 H    -0.34509    -1.04344    -0.05157
 H    -0.42464     0.43971     0.90904
