    9
 
 O     0.00000     0.00000     0.00000
 S     1.41000     0.00000     0.00000
 O     2.20660     1.16341     0.00000
 F     1.85655    -0.85876     1.20422
 O     1.96098    -1.01796    -1.17669
 C     0.99063    -1.83943    -1.80917
 H     0.41007    -2.42112    -1.08325
 H     0.33653    -1.22919    -2.44542
 H     1.60661    -2.51074    -2.42742
