    8
 
 C     0.00000     0.00000     0.00000
 C     1.56326     0.00000     0.00000
 F    -0.51186     1.22237     0.00000
 F    -0.49556    -0.61827     1.06351
 F     2.04253     0.65373     1.05137
Cl     2.16662    -1.64448     0.01051
 F    -0.49461    -0.62086    -1.06223
 F     2.04182     0.63965    -1.06010
