    8
 
 C     0.00000     0.00000     0.00000
 C     1.50969     0.00000     0.00000
 H     1.92463     1.01870     0.00000
 H     1.92399    -0.51131     0.88163
 H     1.90862    -0.51227    -0.88632
 H    -0.43045     0.54233    -0.85701
 H    -0.43042    -1.01311     0.04690
Cl    -0.57756     0.84977     1.46245
