   12
 
 C     0.00000     0.00000     0.00000
 C     1.39464     0.00000     0.00000
 C     2.09611     1.20574     0.00000
 C     1.41104     2.42092    -0.00050
 C     0.01660     2.44007    -0.00131
 C    -0.65333     1.22448    -0.00124
Cl    -2.37529     1.23575    -0.00262
 H    -0.55370    -0.93804     0.00027
 H     1.93563    -0.94550     0.00020
 H     3.18505     1.19857     0.00040
 H     1.96526     3.35875    -0.00026
 H    -0.52435     3.38554    -0.00204
