   12
 
 C     0.00000     0.00000     0.00000
 C     1.33815     0.00000     0.00000
 C     2.16750     1.23682     0.00000
 C    -0.82936     1.23682    -0.00000
 H    -0.56015    -0.93332    -0.00001
 H     1.89830    -0.93332     0.00001
 H     1.96011     1.85793     0.88409
 H     3.24282     1.01994    -0.00060
 H     1.95923     1.85857    -0.88343
 H    -0.62196     1.85793    -0.88409
 H    -1.90467     1.01994     0.00060
 H    -0.62108     1.85857     0.88343
