   18
 
 C     0.00000     0.00000     0.00000
 C     1.53847     0.00000     0.00000
 C     1.92352     1.45816     0.00000
 C     0.58583     2.21797     0.00077
 C    -0.00110     1.99229     1.42464
 C    -0.39921     0.48486     1.42430
 C    -0.32409     1.27252    -0.84238
 H    -0.47008    -0.92696    -0.32802
 O     2.11776     0.62694    -1.14817
 H     2.08841    -0.82453     0.41890
 H     0.63467     3.25643    -0.32662
 H    -0.87343     2.63737     1.59675
 H     0.72753     2.22440     2.21196
 H    -1.47634     0.35448     1.59604
 H     0.11963    -0.07750     2.21117
 H    -0.01667     1.19134    -1.89283
 H     2.80895     1.90450     0.41797
 H    -1.38131     1.55065    -0.82443
