   25
 
 C     0.00000     0.00000     0.00000
 C     1.56643     0.00000     0.00000
 C     2.18092     1.44039     0.00000
 C     1.09776     2.57184    -0.02143
 C     0.01874     2.35187    -1.11979
 C    -0.60110     0.91965    -1.10113
 C    -2.15186     1.08132    -0.95876
 C    -2.43283     2.57118    -0.57200
 C    -1.16144     3.37411    -1.00487
 F    -0.44356     0.36223     1.20518
 F     2.00531    -0.68134    -1.05870
 F     2.01438    -0.69116     1.04683
 F     2.99101     1.58843    -1.04861
 F     2.97521     1.60137     1.05713
 F     1.68948     3.75259    -0.19660
 F     0.52714     2.66417     1.18114
 F     0.62373     2.53487    -2.30363
 F    -0.34397     0.33377    -2.28092
 F    -2.67196     0.23787    -0.07277
 F    -2.75894     0.77306    -2.10291
 F    -2.65231     2.69315     0.73468
 F    -3.53568     3.03529    -1.14883
 F    -0.89568     4.36550    -0.16029
 F    -1.36701     3.98086    -2.17207
 F    -0.44737    -1.24517    -0.15510
