   13
 
 C    -0.02804     0.00638     0.01259
 S     1.84285     0.00256    -0.10884
 C     0.57203     1.37642     0.00156
 C    -0.66769    -0.57324     1.23714
 C     0.57600     2.25576     1.21525
 H    -0.53748    -0.31669    -0.91144
 H     0.45616     1.95779    -0.92872
 H    -0.19079    -0.25560     2.17478
 H    -1.72638    -0.27972     1.30272
 H    -0.63632    -1.67377     1.22479
 H     0.66793     1.70134     2.15998
 H     1.40986     2.97424     1.18909
 H    -0.35408     2.84104     1.27906
