    9
 
 C     0.00000     0.00000     0.00000
 C     1.51000     0.00000     0.00000
 C     0.75500     1.30770     0.00000
 H    -0.54002    -0.31197     0.89274
 H    -0.54002    -0.31192    -0.89275
 H     2.05002    -0.31197    -0.89274
 H     2.05002    -0.31192     0.89275
 H     0.75484     1.93135     0.89274
 H     0.75488     1.93133    -0.89275
