   12
 
 C     0.00000     0.00000     0.00000
 C     1.54800     0.00000     0.00000
 C     0.02917     1.54773     0.00000
 C     1.49056     1.47417     0.50521
 H    -0.47332    -0.46421    -0.88349
 H    -0.44790    -0.43947     0.89406
 H     2.19085     2.16001     0.02610
 H     1.59527     1.57510     1.58717
 H     2.02156    -0.71089     0.67753
 H     1.99595    -0.11217    -0.98905
 H    -0.07917     1.99523    -0.99054
 H    -0.67924     2.03299     0.67389
