   16
 
 C     0.00000     0.00000     0.00000
 C     1.54556     0.00000     0.00000
 C     1.95327     1.48249     0.00000
 C     0.73248     2.29065    -0.48403
 C    -0.39882     1.28601    -0.75907
 C    -0.53207    -1.18260    -0.63961
 N    -0.95332    -2.12778    -1.15588
 H    -0.37327     0.06182     1.05664
 H     1.93821    -0.51285    -0.89649
 H     1.95168    -0.54156     0.86818
 H     2.82773     1.65208    -0.64929
 H     2.25762     1.80572     1.01001
 H     0.97235     2.87266    -1.38894
 H     0.42710     3.02709     0.27851
 H    -0.49185     1.09077    -1.84254
 H    -1.37809     1.66518    -0.42839
