   11
 
 C     0.00000     0.00000     0.00000
 C     2.15170     0.00000     0.00000
 C     1.07517     1.13599     0.00000
 C     1.07574    -0.98837     0.00023
 H    -0.71189    -0.00655     0.86056
 H    -0.71078    -0.00708    -0.86150
 H     2.86298    -0.00624     0.86098
 H     2.86188    -0.00678    -0.86191
 H     1.07523     1.78588    -0.88517
 H     1.07567     1.78569     0.88531
 H     1.07659    -2.07300     0.00084
