   17
 
 C     0.00000     0.00000     0.00000
 C     1.53304     0.00000     0.00000
 C     2.09301     1.42016     0.00000
 C     1.57183     2.20258     1.20283
 C     0.03975     2.24765     1.21812
 C    -0.63717     1.09701     0.67956
 H    -0.38571    -1.00078     0.36321
 H    -0.37779    -0.04862    -1.07350
 H     1.91711    -0.56428    -0.87814
 H     1.91346    -0.56081     0.88183
 H     3.20640     1.38604     0.02669
 H     1.85627     1.94059    -0.94894
 H     1.98683     3.23452     1.19934
 H     1.95222     1.75195     2.14541
 H    -0.32777     2.50139     2.25892
 H    -0.31647     3.18336     0.67572
 H    -1.74528     1.06596     0.77212
