   17
 
 C     0.00000     0.00000     0.00000
 C     1.50934     0.00000     0.00000
 C     2.05832     1.42914     0.00000
 C     1.42703     2.26036     1.12322
 C    -0.09638     2.30890     0.95755
 C    -0.69220     0.89962     0.99507
 O    -0.62706    -0.71422    -0.74102
 H     1.88878    -0.56164    -0.87841
 H     1.86963    -0.55695     0.88805
 H     3.15885     1.40880     0.11197
 H     1.86427     1.90712    -0.98022
 H     1.84320     3.28484     1.11684
 H     1.69088     1.83299     2.10847
 H    -0.54909     2.93180     1.75176
 H    -0.35837     2.80389     0.00180
 H    -1.78128     0.93102     0.78605
 H    -0.59557     0.46103     2.00824
