   15
 
 C     0.00000     0.00000     0.00000
 C    -0.54200     2.32452    -0.65055
 C     0.67337     2.47390    -1.51085
 C    -0.83505     1.18777    -0.00000
 C     1.34688     0.00000     0.00000
 C     2.18192     1.18777     0.00000
 C     1.88880     2.32452    -0.65055
 H     2.53191     3.19907    -0.58985
 H    -1.18526     3.19893    -0.58986
 H    -1.75270     1.10541     0.58747
 H     3.09942     1.10549     0.58775
 H    -0.54735    -0.94563     0.04468
 H     1.89418    -0.94569     0.04469
 H     0.67337     3.44153    -2.04922
 H     0.67337     1.69248    -2.30696
