   23
 
 C     0.00000     0.00000     0.00000
 C     1.53342     0.00000     0.00000
 C    -0.50582     1.42305     0.00000
 C     2.13152     0.41733     1.35031
 C    -1.19113     1.93636     1.24409
 C     2.03875     1.93012     1.61120
 C    -0.28685     2.95948     1.94134
 C     0.93414     2.31429     2.61097
 O    -0.37238     2.12664    -0.97081
 H    -0.37254    -0.51568    -0.90992
 H    -0.38559    -0.57757     0.85830
 H     1.90656     0.66422    -0.80695
 H     1.89409    -1.01437    -0.26231
 H     3.19593     0.11058     1.37708
 H     1.64831    -0.14863     2.16744
 H    -2.14887     2.41802     0.95513
 H    -1.45732     1.11879     1.93660
 H     3.01242     2.28976     1.99572
 H     1.89363     2.47236     0.65607
 H     0.03740     3.73075     1.21259
 H    -0.87826     3.50398     2.70391
 H     1.34963     3.02514     3.35255
 H     0.62128     1.43270     3.19925
