   20
 
 N     0.00000     0.00000     0.00000
 C     1.47439     0.00000     0.00000
 C     2.16138     1.38375     0.00000
 C     1.40875     2.47354    -0.77130
 C     0.88185     2.00318    -2.13472
 C    -0.54244     1.44502    -2.03316
 C    -0.58392     0.06287    -1.35302
 H    -0.36251     0.74768     0.58687
 H     1.84001    -0.60073    -0.86008
 H     1.78251    -0.55955     0.91510
 H     3.18028     1.26996    -0.41686
 H     2.30520     1.72025     1.04491
 H     2.08363     3.34045    -0.91507
 H     0.57194     2.85882    -0.15811
 H     1.56057     1.24432    -2.56572
 H     0.89151     2.85015    -2.84740
 H    -0.98293     1.36216    -3.04486
 H    -1.18985     2.15368    -1.48500
 H    -0.08383    -0.69186    -1.99723
 H    -1.64323    -0.27155    -1.25374
