   19
 
 C     0.00000     0.00000     0.00000
 C     1.54268     0.00000     0.00000
 C     1.52429     2.52391     0.00000
 C    -0.00992     2.51707    -0.02021
 C    -0.53769     1.25740    -0.71457
 C    -0.49030    -1.19035    -0.66723
 N    -0.88061    -2.14012    -1.19974
 H    -0.36142     0.00808     1.06530
 H     1.92343    -0.05123    -1.03810
 H     1.92520    -0.90322     0.51095
 H     1.91507     2.58998    -1.03257
 H     1.89067     3.42710     0.52225
 H    -0.38611     3.41925    -0.53816
 H    -0.40209     2.57716     1.01257
 H    -1.64364     1.25323    -0.71477
 H    -0.23019     1.25063    -1.77780
 C     2.06495     1.26460     0.69010
 H     3.17119     1.27094     0.67725
 H     1.77486     1.26508     1.75772
