   17
 
 N     0.02878     0.02818    -0.08718
 C     1.30090     0.53287     0.47438
 C     2.26801    -0.64224     0.74777
 C     3.10703    -0.21071     1.96125
 C     2.34536     0.93671     2.65779
 C     1.05351     1.17363     1.85949
 H    -0.64624     0.76199    -0.21536
 H     0.16306    -0.45503    -0.95859
 H     1.78920     1.27470    -0.20394
 H     2.89148    -0.87261    -0.12633
 H     1.69181    -1.55805     0.97655
 H     4.10902     0.12347     1.64682
 H     3.26644    -1.05620     2.64893
 H     2.96172     1.85031     2.68631
 H     2.11963     0.68503     3.70607
 H     0.80530     2.24045     1.78071
 H     0.19268     0.68254     2.35125
