   26
 
 C     0.00000     0.00000     0.00000
 C     1.51123     0.00000     0.00000
 C     2.05059     1.43565     0.00000
 C     1.71319     2.18716     1.29841
 C     0.80474     3.40626     1.07737
 C    -0.65945     3.01876     0.81952
 C    -1.00011     2.87935    -0.67446
 C    -1.69607     1.54902    -0.99984
 C    -0.69976     0.41488    -1.27276
 O    -0.62080    -0.35589     0.97081
 H     1.89260    -0.55634    -0.87669
 H     1.88585    -0.54669     0.89094
 H     1.65996     1.98552    -0.87740
 H     3.14881     1.40741    -0.13886
 H     2.65006     2.51796     1.78596
 H     1.23541     1.50046     2.02644
 H     1.19331     4.03187     0.25438
 H     0.85198     4.05010     1.97869
 H    -0.89351     2.07800     1.35819
 H    -1.32565     3.77567     1.27470
 H    -0.09225     2.98932    -1.29462
 H    -1.65591     3.71791    -0.97781
 H    -2.34822     1.67911    -1.88514
 H    -2.37443     1.25796    -0.17119
 H     0.01933     0.71605    -2.05563
 H    -1.24216    -0.46574    -1.67781
