   19
 
 C     0.00000     0.00000     0.00000
 C     1.39660     0.00000     0.00000
 C     2.09197     1.20678     0.00000
 C     1.39622     2.41475    -0.00097
 C     0.00229     2.41512    -0.00404
 C    -0.69653     1.21038    -0.00500
 C    -0.74019    -1.28078    -0.02382
 C    -0.47630    -2.33130     1.03645
 C    -1.78186    -1.57674     1.03674
 H     1.93726    -0.94411     0.00092
 H     3.18016     1.20579     0.00039
 H     1.94070     3.35615    -0.00004
 H    -0.54178     3.35755    -0.00562
 H    -1.78447     1.20826    -0.00821
 H    -0.93710    -1.62095    -1.05089
 H     0.25627    -2.13336     1.81499
 H    -0.45570    -3.38094     0.76002
 H    -2.70177    -2.08269     0.76054
 H    -1.97573    -0.84329     1.81549
