   14
 
 C    -0.00530    -0.02004    -0.06180
 C     1.53825    -0.00404     0.00969
 C     1.97405     1.46479    -0.05016
 C    -0.44135     1.33812    -0.62437
 C     0.76558     2.23873    -0.51878
 O     0.76469     3.41215    -0.77348
 H    -0.36397    -0.85264    -0.68853
 H    -0.43692    -0.18490     0.94085
 H     1.96982    -0.57442    -0.83148
 H     1.89709    -0.49655     0.92801
 H     2.83167     1.62366    -0.72836
 H     2.30518     1.84179     0.93619
 H    -0.76788     1.26691    -1.67904
 H    -1.30218     1.76480    -0.07899
