    8
 
 C     1.66012     0.00000     0.00000
 C     0.24862     0.48708    -0.34527
 C     0.49324    -0.78199     0.26511
 H     2.27859     0.47740     0.79138
 H     2.40987    -0.25313    -0.78138
 H    -0.09775     0.61284    -1.39454
 H    -0.23120     1.34290     0.17832
 H     0.08324    -1.69848     0.65648
