   15
 
 C     0.00000     0.00000     0.00000
 C     1.54151     0.00000    -0.00000
 C     1.99646     1.47091     0.00000
 C    -0.45496     1.47091     0.00000
 C     0.77075     2.30196     0.41332
 H    -0.39820    -0.53625    -0.87511
 H    -0.38691    -0.52756     0.88690
 H     1.93971    -0.53624    -0.87511
 H     1.92841    -0.52756     0.88689
 H     2.34412     1.76689    -1.00415
 H     2.84389     1.63360     0.68242
 H    -0.80258     1.76690    -1.00416
 H    -1.30251     1.63356     0.68227
 H     0.77072     3.29429    -0.06154
 H     0.77072     2.47484     1.50305
