   19
 
 C     0.00000     0.00000     0.00000
 C     1.53060     0.00000     0.00000
 C     2.05038     1.44677     0.00000
 C     1.49893     2.22085     1.20390
 C    -0.03449     2.19417     1.20636
 C    -0.54621     0.74504     1.21931
 S    -0.66748    -1.72280    -0.08607
 H    -0.37225     0.48562    -0.93495
 H     1.92527    -0.53649    -0.88491
 H     1.93016    -0.53209     0.88417
 H     3.15581     1.44825     0.02143
 H     1.76381     1.95296    -0.94056
 H     1.86111     3.26522     1.18150
 H     1.88643     1.78434     2.14347
 H    -0.42559     2.74083     2.08357
 H    -0.42371     2.72567     0.31776
 H    -1.65362     0.74142     1.22539
 H    -0.23304     0.25383     2.16025
 H    -0.18962    -2.22474     1.05823
