   16
 
 C     0.00000     0.00000     0.00000
 C     1.33615     0.00000    -0.00000
 C     2.16012     1.24754    -0.00000
 C     1.33288     2.48469    -0.38168
 C     0.00326     2.48469     0.38168
 C    -0.82397     1.24754     0.00000
 H    -0.57148    -0.92541    -0.00000
 H     1.90763    -0.92541     0.00000
 H     3.01742     1.14146    -0.69440
 H     2.60531     1.38878     1.00777
 H     1.14011     2.48489    -1.47094
 H     1.90158     3.40647    -0.16794
 H    -0.56543     3.40647     0.16794
 H     0.19604     2.48489     1.47094
 H    -1.26917     1.38878    -1.00777
 H    -1.68127     1.14146     0.69440
