    9
 
 C     0.00000     0.00000     0.00000
 C     1.51009     0.00000     0.00000
 C     0.75504     1.30777     0.00000
 H    -0.53871    -0.31099     0.89009
 H    -0.53871    -0.31094    -0.89010
 H     2.04879    -0.31099    -0.89009
 H     2.04879    -0.31094     0.89010
 H     0.75507     1.92980     0.89009
 H     0.75511     1.92978    -0.89010
