   12
 
 C     0.00000     0.00000     0.00000
 C     1.55230     0.00000     0.00000
 C     0.00007     1.55230     0.00000
 C     1.55237     1.55222     0.00011
 H    -0.45280    -0.45225    -0.88436
 H    -0.45297    -0.45244     0.88418
 H     2.00471     2.00502    -0.88426
 H     2.00476     2.00507     0.88443
 H     2.00525    -0.45253     0.88416
 H     2.00506    -0.45219    -0.88443
 H    -0.45212     2.00506    -0.88445
 H    -0.45245     2.00526     0.88417
