   25
 
 C     0.11115     0.22759    -0.10495
 C     1.63949     0.05614     0.04878
 C    -0.42137     0.80401     1.21154
 N    -0.45097    -1.07763    -0.49114
 O     2.26961     0.61283     0.92142
 S    -2.20222     1.20089     1.03167
 H    -0.04811     0.95552    -0.95120
 H     0.14989     1.71929     1.48122
 H    -0.25697     0.10016     2.04745
 H    -1.32677    -0.98571    -0.98507
 H    -2.48648     1.52088     2.30137
 C     3.68741    -0.96862    -0.84605
 C     4.23022    -0.81422    -2.26528
 C     3.95746    -2.37604    -0.30084
 N     2.25226    -0.70279    -0.92832
 O     4.91786     0.05640    -2.71504
 S     5.74402    -2.75929    -0.27170
 H     4.17730    -0.18231    -0.18849
 H     3.39615    -3.13851    -0.87458
 H     3.59123    -2.44938     0.74536
 H     1.69252    -1.32497    -1.50967
 H     5.91001    -3.16139    -1.53845
 H    -0.58959    -1.68692     0.30106
 O     3.80610    -1.84929    -3.04050
 H     4.07869    -1.77584    -3.98784
