   16
 
 C     0.00000     0.00000     0.00000
 C     1.51013     0.00000     0.00000
 C     2.26799     1.10512     0.00000
 C     1.72726     2.51437    -0.05193
 C     0.19070     2.57228     0.26963
 C    -0.58681     1.39765    -0.41113
 F    -0.48369    -0.94773    -0.80508
 F    -0.46853    -0.33333     1.20696
 F     2.05023    -1.19969     0.02194
 F     3.58169     1.03309     0.02491
 F     2.39221     3.31814     0.78032
 F     1.94207     3.05094    -1.25777
 F     0.00681     2.52419     1.58957
 F    -0.31894     3.74499    -0.09742
 F    -1.88353     1.46321    -0.12170
 F    -0.53161     1.53444    -1.73670
