   33
 
 C     0.00000     0.00000     0.00000
 C     1.52908     0.00000     0.00000
 C     2.07529     1.43393     0.00000
 C     3.60917     1.43234    -0.00138
 C     4.15203     2.86698    -0.00112
 C     5.68599     2.86639    -0.00304
 C     6.22733     4.30160    -0.00191
 C     7.76159     4.30217    -0.00469
 C     8.29687     5.73597    -0.00157
 C     9.82759     5.73722    -0.00563
 O    10.18249     7.11413     0.00074
 H    -0.40048     0.51040     0.88288
 H    -0.40031     0.50753    -0.88460
 H    -0.39658    -1.02118     0.00155
 H     1.90681    -0.55033     0.88209
 H     1.90643    -0.54918    -0.88310
 H     1.69592     1.98218     0.88224
 H     1.69519     1.98205    -0.88211
 H     3.98795     0.88241     0.88002
 H     3.98600     0.88445    -0.88501
 H     3.77310     3.41460     0.88190
 H     3.77170     3.41510    -0.88332
 H     6.06496     2.31578     0.87788
 H     6.06241     2.31904    -0.88719
 H     5.84871     4.84876     0.88177
 H     5.84629     4.85070    -0.88345
 H     8.13957     3.74980     0.87621
 H     8.13604     3.75578    -0.89089
 H     7.92717     6.29456     0.88020
 H     7.92333     6.29946    -0.87877
 H    10.24623     5.25558     0.89499
 H    10.24154     5.26505    -0.91317
 H    11.15157     7.21610     0.00002
