   36
 
 C     0.00000     0.00000     0.00000
 C     1.52900     0.00000     0.00000
 C     2.07618     1.43355     0.00000
 C     3.61000     1.43070    -0.00250
 C     4.15491     2.86455     0.00221
 C     5.68881     2.86163    -0.00396
 C     6.23308     4.29572     0.00583
 C     7.76724     4.29258    -0.00455
 C     8.30713     5.72497     0.01036
 C     9.83867     5.71782    -0.00477
 O    10.18433     7.09940     0.01834
 C    11.58026     7.31687     0.00250
 H    -0.40030     0.50652    -0.88518
 H    -0.40047     0.51153     0.88224
 H    -0.39662    -1.02113     0.00288
 H     1.90642    -0.55015    -0.88236
 H     1.90643    -0.54951     0.88290
 H     1.69548     1.98277    -0.88099
 H     1.69855     1.98137     0.88331
 H     3.98580     0.88461    -0.88757
 H     3.98877     0.87832     0.87749
 H     3.77264     3.41737    -0.87603
 H     3.77987     3.40862     0.88912
 H     6.06213     2.31927    -0.89237
 H     6.06929     2.30513     0.87271
 H     5.84880     4.85305    -0.86891
 H     5.86083     4.83620     0.89636
 H     8.13689     3.75399    -0.89742
 H     8.14897     3.73168     0.86939
 H     7.92841     6.29764    -0.85802
 H     7.94591     6.27245     0.90242
 H    10.24125     5.25141    -0.91975
 H    10.26010     5.21686     0.88280
 H    12.03115     6.92365    -0.91376
 H    12.05785     6.88526     0.88740
 H    11.66177     8.41129     0.02470
