   29
 
 C     0.00000     0.00000     0.00000
 C     1.53051     0.00000     0.00000
 C     2.09571     1.43048     0.00000
 S     3.85814     1.38832     0.46883
 C     4.22410     3.02509     1.18500
 C     5.42443     2.91682     2.13948
 C     5.51862     4.13392     3.06328
 C     4.49134     4.04634     0.08532
 C     1.91920     2.08392    -1.36593
 O     3.96657     0.43544     1.55985
 O     4.65242     1.21610    -0.73050
 H    -0.40369     0.51115     0.88069
 H    -0.40965     0.49254    -0.88783
 H    -0.39025    -1.02462     0.01203
 H     1.88542    -0.56826     0.89049
 H     1.90309    -0.56418    -0.87882
 H     1.54229     2.02181     0.76598
 H     3.33823     3.34897     1.78090
 H     5.35151     1.99971     2.76839
 H     6.36744     2.80953     1.56637
 H     5.64975     5.06466     2.50199
 H     4.62040     4.24094     3.68102
 H     6.37270     4.04206     3.74452
 H     5.28091     3.71359    -0.60872
 H     3.60385     4.27352    -0.51502
 H     4.83339     5.00012     0.50993
 H     2.18702     3.14609    -1.37316
 H     2.52567     1.58986    -2.14340
 H     0.87458     2.02049    -1.69971
