   29
 
 C     0.00000     0.00000     0.00000
 C     1.53706     0.00000     0.00000
 C     2.07327     1.43310     0.00000
 S     3.87383     1.45633     0.00028
 C     4.27732     3.21092     0.01340
 C     5.79363     3.42382     0.01865
 C     6.12614     4.92407     0.02848
 O     4.32394     0.88855     1.25372
 O     4.32411     0.90767    -1.26151
 H    -0.38074     0.54048     0.88669
 H    -0.38110     0.55105    -0.87991
 C    -0.53858    -1.43019    -0.00837
 H     1.90599    -0.56032     0.88523
 H     1.90552    -0.55963    -0.88596
 H     1.68785     1.97169    -0.88514
 H     1.68597     1.97100     0.88497
 H     3.83901     3.70882    -0.87066
 H     3.83333     3.69806     0.90031
 H     6.25774     2.93635     0.90219
 H     6.26194     2.94779    -0.86900
 H     5.68269     5.41838    -0.85613
 H     5.66915     5.41057     0.91038
 C     7.63915     5.14016     0.04089
 H    -0.20782    -1.97933    -0.89768
 H    -0.20086    -1.99262     0.86994
 H    -1.63397    -1.44349    -0.00412
 H     8.11567     4.69777    -0.84174
 H     8.10267     4.68875     0.92590
 H     7.88951     6.20659     0.04826
