   28
 
 C    -0.02655    -0.00721     0.00053
 C     1.49699    -0.09918     0.09026
 C     2.11663     1.29919     0.18443
 C     3.65080     1.20477     0.25056
 N     4.17233     2.56002     0.50526
 N     4.98193     2.99042    -0.33480
 C     5.50212     4.34645    -0.08026
 C     7.03622     4.25416    -0.01053
 C     7.65300     5.65398     0.08340
 C     9.17645     5.56503     0.17764
 H    -0.45043     0.50115     0.87424
 H    -0.34396     0.54813    -0.88934
 H    -0.48226    -1.00204    -0.05337
 H     1.78610    -0.70478     0.97043
 H     1.89417    -0.63503    -0.79307
 H     1.73326     1.83241     1.07695
 H     1.81405     1.91386    -0.68472
 H     3.96912     0.57635     1.11406
 H     4.05499     0.72640    -0.66772
 H     5.18510     4.97288    -0.94546
 H     5.09509     4.82566     0.83631
 H     7.33807     3.64055     0.85932
 H     7.42224     3.72115    -0.90192
 H     7.36540     6.25741    -0.79865
 H     7.25202     6.19040     0.96454
 H     9.49230     5.00718     1.06648
 H     9.60403     5.06070    -0.69648
 H     9.62981     6.56072     0.23673
