   31
 
 C     0.04341    -0.08128     0.03897
 S     2.45266     0.93773    -0.51228
 C     2.28074     3.55718     0.03487
 O     3.67541     1.03458     0.23194
 O     2.34539     0.23587    -1.75828
 C    -0.99774     0.98343     0.38609
 C     1.00264     4.18902     0.59068
 O     1.30833     0.34864     0.51352
 O     1.87800     2.45826    -0.76824
 C    -1.14286     1.12134     1.90654
 C     0.13159     4.73473    -0.54704
 C    -2.19785     2.16403     2.27096
 C    -1.17725     5.31599    -0.01638
 H    -0.11757    -1.02199     0.60558
 H     0.06468    -0.31132    -1.04310
 H     2.80652     4.22905    -0.67328
 H     2.97691     3.25590     0.84020
 H    -0.71271     1.95919    -0.05853
 H    -1.96891     0.72025    -0.07210
 H     1.26245     4.99633     1.29985
 H     0.43422     3.43873     1.17680
 H    -0.16250     1.39102     2.34989
 H    -1.40973     0.14482     2.35362
 H    -0.07716     3.92520    -1.27660
 H     0.68662     5.50657    -1.11337
 H    -2.32117     2.24190     3.35725
 H    -3.17604     1.90981     1.84754
 H    -1.92615     3.15968     1.90153
 H    -1.75951     5.77621    -0.82355
 H    -0.99967     6.08769     0.74094
 H    -1.80572     4.54225     0.43978
