   23
 
 C     0.00000     0.00000     0.00000
 C     1.53022     0.00000     0.00000
 C     2.06823     1.43355     0.00000
 S     3.86781     1.46013    -0.00277
 C     4.26986     3.21431     0.00921
 C     5.78641     3.43248     0.01339
 C     6.11429     4.92674     0.02426
 O     4.32145     0.89269     1.24995
 O     4.31751     0.91090    -1.26493
 H    -0.40487     0.50742     0.88208
 H    -0.40451     0.49903    -0.88705
 H    -0.39281    -1.02364     0.00456
 H     1.90064    -0.55908     0.88604
 H     1.90007    -0.55897    -0.88642
 H     1.67891     1.97227    -0.88340
 H     1.68036     1.97019     0.88557
 H     3.83058     3.71245    -0.87427
 H     3.82605     3.70254     0.89564
 H     6.25142     2.94416     0.89664
 H     6.25373     2.95724    -0.87588
 H     5.71167     5.43600    -0.85791
 H     5.70718     5.42425     0.91112
 H     7.19838     5.09150     0.02832
