   29
 
 S     0.00000     0.00000     0.00000
 O     1.45392     0.00000     0.00000
 O    -0.74457     1.24895     0.00000
 C    -0.49140    -0.86576     1.55170
 C    -2.00975    -0.99281     1.65502
 C     0.16298    -2.24197     1.64968
 C     0.01786     0.01586     2.69900
 C    -0.49016    -0.86089    -1.55479
 C     0.16889    -2.23436    -1.65880
 C    -2.00834    -0.99212    -1.65707
 C     0.01592     0.02629    -2.69902
 H    -2.51885    -0.02985     1.49087
 H    -2.42967    -1.72253     0.95516
 H    -2.30202    -1.32686     2.66044
 H     1.25042    -2.19740     1.48022
 H    -0.26051    -2.97130     0.95153
 H     0.02601    -2.66393     2.65535
 H    -0.42647     1.02279     2.68005
 H     1.11134     0.14049     2.67526
 H    -0.23007    -0.42168     3.67316
 H     1.25595    -2.18708    -1.48741
 H    -0.25335    -2.96879    -0.96523
 H     0.03503    -2.65125    -2.66698
 H    -2.52034    -0.03180    -1.48678
 H    -2.42510    -1.72763    -0.96133
 H    -2.30061    -1.32077    -2.66428
 H    -0.43045     1.03223    -2.67545
 H     1.10920     0.15306    -2.67596
 H    -0.23213    -0.40760    -3.67478
