   28
 
 C     0.00620    -0.07226    -0.00852
 C     1.32578     0.69908    -0.04523
 C     2.16468     0.40100     1.20222
 C     3.48662     1.18742     1.16479
 N     4.31915     0.77662     2.32007
 C     5.57364     1.56224     2.39124
 C     6.34545     1.14869     3.65641
 C     7.70689     1.85034     3.70813
 C     8.47503     1.44754     4.96697
 H     0.17593    -1.15389     0.04378
 H    -0.59902     0.20827     0.86061
 H    -0.59310     0.12376    -0.90452
 H     1.89361     0.42988    -0.95665
 H     1.12538     1.78450    -0.12069
 H     1.59433     0.64967     2.11505
 H     2.38402    -0.68323     1.26904
 H     4.05066     0.94144     0.23749
 H     3.28484     2.27938     1.14319
 H     3.79481     0.85134     3.18938
 H     6.17283     1.32458     1.48422
 H     5.39965     2.65892     2.38782
 H     5.75722     1.38578     4.56108
 H     6.47791     0.04844     3.66328
 H     8.29888     1.59584     2.80825
 H     7.57249     2.94834     3.68320
 H     7.92799     1.72195     5.87570
 H     8.64727     0.36554     5.00078
 H     9.45336     1.93857     5.01005
