   16
 
 C    -0.02596    -0.04089    -0.06624
 C     1.45206    -0.35871    -0.25672
 O     2.23613     0.81442    -0.21648
 O     2.11853     1.41266    -1.52660
 C     2.16406     2.80851    -1.32031
 C     0.81908     3.33943    -0.83964
 H     0.82617     4.42930    -0.74291
 H     0.56433     2.91392     0.14001
 H     0.01304     3.06353    -1.52942
 H     2.42513     3.17715    -2.33158
 H     2.98108     3.06625    -0.62320
 H     1.87048    -0.94034     0.58818
 H     1.63509    -0.91113    -1.19600
 H    -0.40127     0.56703    -0.90018
 H    -0.63012    -0.95148    -0.01304
 H    -0.19392     0.53383     0.85196
