   15
 
 C     0.00000     0.00000     0.00000
 C     1.52542     0.00000     0.00000
 O     1.86899     1.38052     0.00000
 C     3.27353     1.60409    -0.00320
 C     3.41290     3.12277    -0.00695
 H     4.46282     3.42908    -0.00713
 H     2.92420     3.56262     0.87224
 H     2.92598     3.55821    -0.88932
 H     3.71759     1.14620    -0.90451
 H     3.72041     1.15072     0.89917
 H     1.93988    -0.48188     0.90301
 H     1.94001    -0.48407    -0.90138
 H    -0.40077    -1.01762     0.00126
 H    -0.39116     0.52460    -0.88145
 H    -0.39146     0.52659     0.88019
