   18
 
 O    -0.05461    -0.00025     0.06735
 S     1.45121     0.67352     0.21961
 O     1.03688     2.25721     0.51847
 C    -0.87731     0.10865    -1.07087
 C     0.95754     3.26436    -0.46115
 O     2.03740     0.65561    -1.12252
 C    -1.97656     1.12614    -0.78441
 C     2.34864     3.71470    -0.88894
 H    -1.28178    -0.91761    -1.18745
 H    -0.28705     0.36504    -1.97064
 H     0.41078     4.06748     0.07625
 H     0.35337     2.91637    -1.31918
 H    -2.64665     1.24363    -1.64166
 H    -1.56196     2.11082    -0.53727
 H    -2.57748     0.81818     0.08171
 H     2.30336     4.63577    -1.47850
 H     2.84758     2.95129    -1.50606
 H     2.99030     3.90039    -0.01920
