   18
 
 O     0.00000     0.00000     0.00000
 C     1.41030     0.00000     0.00000
 C     1.92485     1.45450     0.00000
 N     3.40294     1.40558    -0.01256
 C     3.99519     2.74743    -0.20100
 C     5.51519     2.56455    -0.39262
 O     6.11533     3.82491    -0.59599
 H    -0.34923     0.36381    -0.83672
 H     1.66151    -0.53539     0.93359
 H     1.79301    -0.56963    -0.86489
 H     1.50380     2.00637     0.86655
 H     1.57063     1.97659    -0.91442
 H     3.75331     0.97679     0.84453
 H     3.79987     3.44401     0.64111
 H     3.55659     3.21361    -1.10920
 H     6.01355     2.19407     0.52148
 H     5.74404     1.89086    -1.23651
 H     5.82610     4.21684    -1.44283
