   22
 
 C    -0.12025     0.53831     0.00681
 C    -1.55704     0.77338    -0.49892
 C    -0.03689    -0.85051     0.67067
 N     0.77674     0.70706    -1.15216
 C     2.17403     1.06828    -0.84567
 C     3.07369    -0.13953    -0.51751
 C     2.72910     1.79538    -2.08592
 H     0.13050     1.32362     0.76556
 H    -1.63343     1.75052    -0.99384
 H    -1.85576     0.01855    -1.23275
 H    -2.27415     0.75048     0.32536
 H    -0.25306    -1.65031    -0.04399
 H     0.95448    -1.03540     1.09358
 H    -0.76341    -0.93702     1.48565
 H     0.71869    -0.07318    -1.79645
 H     2.17680     1.77683     0.02220
 H     2.75073    -0.64423     0.39767
 H     3.06511    -0.87688    -1.32582
 H     4.11205     0.17545    -0.37233
 H     2.78474     1.12975    -2.95246
 H     2.07260     2.63069    -2.36323
 H     3.72808     2.19453    -1.89543
