   27
 
 C    -0.01222     0.01067     0.02344
 C     1.50628     0.20008    -0.06378
 C     1.88040     1.68731    -0.11297
 S     1.58094     2.35437    -1.80235
 C     1.86667     4.15234    -1.52905
 C     1.50229     4.93721    -2.79605
 C    -0.01597     5.09303    -2.93731
 C     2.15808     6.32579    -2.72580
 C     2.17804    -0.44164     1.16077
 H    -0.42533     0.47272     0.92613
 H    -0.52752     0.45447    -0.83681
 H    -0.27760    -1.05194     0.04499
 H     1.88334    -0.32044    -0.97968
 H     1.29686     2.25866     0.62833
 H     2.94620     1.82861     0.13846
 H     1.26868     4.50345    -0.67103
 H     2.92859     4.30712    -1.26800
 H     1.89871     4.41145    -3.70103
 H    -0.52243     4.12200    -2.98855
 H    -0.44524     5.64271    -2.09297
 H    -0.27267     5.63934    -3.85152
 H     1.82020     6.88576    -1.84763
 H     3.24968     6.25202    -2.67888
 H     1.90831     6.92290    -3.60984
 H     3.26921    -0.36983     1.10392
 H     1.85931     0.03701     2.09231
 H     1.92409    -1.50489     1.23600
