    9
 
 N     0.00000     0.00000     0.00000
 C     1.44859     0.00000     0.00000
 H     1.90160     1.01043     0.00000
 H     1.76550    -0.50567     0.92724
 H     1.90094    -0.54771    -0.84953
 C    -0.53542     0.64731    -1.18012
 H    -0.24915     0.16107    -2.13287
 H    -1.63391     0.59629    -1.09869
 H    -0.25757     1.71502    -1.27576
