   17
 
 C    -0.00086     0.07981    -0.04053
 O     1.40483     0.21749    -0.23397
 C     2.00990     1.19349     0.48867
 O     1.42972     1.89718     1.26864
 C     3.47985     1.18400     0.17796
 C     3.94957     2.56544    -0.18061
 O     3.45326     3.33163    -0.95943
 O     5.09615     2.82446     0.49781
 C     5.69035     4.09742     0.25550
 H    -0.22013    -0.15946     1.00526
 H    -0.51163     1.00247    -0.33858
 H    -0.25833    -0.75429    -0.70354
 H     4.03478     0.78082     1.06036
 H     3.71579     0.48846    -0.66435
 H     5.01001     4.89623     0.57093
 H     5.94441     4.20433    -0.80445
 H     6.59114     4.07094     0.88020
