   12
 
 N     0.00000     0.00000     0.00000
 C     1.45842     0.00000     0.00000
 H     1.85048     1.03418     0.00000
 H     1.86309    -0.51362     0.88815
 H     1.85069    -0.51570    -0.89629
 C    -0.65007     0.65298    -1.13235
 H    -0.37094     0.16777    -2.08293
 H    -1.75398     0.58729    -1.03020
 H    -0.37990     1.72152    -1.18120
 C    -0.73534    -0.58291     1.00438
 H    -0.16701    -1.05397     1.81790
 O    -1.95094    -0.56666     0.97455
