    9
 
 S     0.00000     0.00000     0.00000
 C     1.14092     1.41887     0.00000
 C     1.14092    -1.41887    -0.00000
 H     0.53960     2.33662    -0.00000
 H     0.53960    -2.33662    -0.00000
 H     1.77908     1.43304     0.88831
 H     1.77908     1.43304    -0.88831
 H     1.77908    -1.43304     0.88831
 H     1.77908    -1.43304    -0.88831
