   12
 
 O    -0.00749    -0.06800     0.09760
 S     1.64468    -0.04099    -0.08830
 O     1.91509     1.60051    -0.05262
 C    -0.91012     0.09837    -0.96544
 C     1.81260     2.41624    -1.19164
 O     1.90340    -0.45559    -1.46803
 H    -1.83158    -0.38511    -0.60799
 H    -0.56051    -0.38919    -1.88506
 H    -1.08172     1.16943    -1.12656
 H     2.33241     3.33965    -0.89745
 H     0.75715     2.62329    -1.40354
 H     2.30996     1.96390    -2.06041
