    9
 
 O     0.00000     0.00000     0.00000
 C     1.39140     0.00000     0.00000
 C    -0.65447     1.22788     0.00000
 F     1.77563    -1.26165     0.00329
 F    -1.94857     0.97352     0.00392
 F     1.88638     0.59400    -1.07191
 F     1.88812     0.60035     1.06747
 F    -0.36347     1.94386    -1.07212
 F    -0.35808     1.94874     1.06731
