   24
 
 C     0.00000     0.00000     0.00000
 C     1.39417     0.00000     0.00000
 C     2.10444     1.20499     0.00000
 C     1.41679     2.41598     0.00073
 C     0.02323     2.42669     0.00109
 C    -0.68041     1.22004     0.00061
 C    -2.15341     1.18418    -0.00027
 O    -2.85565     0.20506    -0.00655
 O    -2.66860     2.44350     0.00740
 C    -4.09043     2.52942     0.00540
 C     2.16875    -1.25419    -0.00025
 O     3.36986    -1.36008    -0.00559
 O     1.34400    -2.33279     0.00698
 C     1.98477    -3.60517     0.00631
 H    -0.56397    -0.94226    -0.00020
 H     3.19942     1.18698    -0.00049
 H     1.96846     3.35508     0.00089
 H    -0.51771     3.37695     0.00152
 H    -4.49826     2.05698     0.90571
 H    -4.49752     2.05305    -0.89312
 H    -4.27092     3.61036     0.00311
 H     2.59657    -3.72085     0.90730
 H     2.60201    -3.71892    -0.89117
 H     1.13866    -4.30268     0.00316
