   10
 
 C    -0.19082    -0.03740     0.04696
 O     1.21683    -0.04835     0.13576
 O     1.59052     1.35266     0.14702
 C     2.98986     1.34526    -0.02948
 H     3.25134     2.41051     0.00754
 H     3.26293     0.91675    -0.99941
 H     3.48579     0.80139     0.78096
 H    -0.52341     0.42266    -0.88886
 H    -0.44934    -1.10383     0.06490
 H    -0.63535     0.47804     0.90508
