   14
 
 N    -0.00733     0.00363    -0.00403
 C     1.46904    -0.00223     0.00200
 C    -0.53383     1.38286    -0.00822
 C    -0.57113    -0.80505    -1.08033
 O    -0.31472    -0.28296    -2.37001
 H     1.83890    -1.04017    -0.01302
 H     1.92883     0.55069    -0.83042
 H     1.81837     0.44920     0.94787
 H    -0.26843     1.95578    -0.91121
 H    -1.63375     1.35150     0.06572
 H    -0.15939     1.91826     0.87935
 H    -1.68236    -0.79151    -1.03324
 H    -0.18790    -1.84395    -1.02035
 H     0.62862    -0.31423    -2.59955
