   20
 
 C     0.47513     0.90078    -0.16210
 O     1.69681     1.27954     0.46707
 C     2.48494     0.26901     0.90025
 O     2.21009    -0.89254     0.76382
 C     3.71146     0.82596     1.58506
 C     4.07188     2.19658     1.05765
 O     3.89088     3.26207     1.57861
 O     4.71047     2.04911    -0.13168
 C     5.15081     3.25060    -0.75852
 C     3.43796     0.90752     3.08440
 H     0.66818     0.24513    -1.01772
 H    -0.17813     0.40357     0.56250
 H     0.06177     1.86498    -0.48205
 H     4.56646     0.11815     1.38703
 H     5.88078     3.76097    -0.12099
 H     4.29858     3.90652    -0.96490
 H     5.61186     2.88978    -1.68559
 H     2.66331     1.65643     3.31364
 H     4.33776     1.20783     3.63905
 H     3.10297    -0.05773     3.48791
