   16
 
 C     0.00000     0.00000     0.00000
 C     1.52770     0.00000     0.00000
 O     1.87410     1.36890     0.00000
 C     3.17145     1.67680    -0.46270
 O     1.87227    -0.58749     1.23608
 C     3.18141    -1.10700     1.32869
 H    -0.39260    -1.02092     0.05742
 H    -0.38244     0.55232     0.87235
 H    -0.39234     0.48885    -0.89824
 H     1.99277    -0.53644    -0.84896
 H     3.92369     1.36664     0.26921
 H     3.36869     1.23424    -1.44292
 H     3.15258     2.77268    -0.53800
 H     3.41257    -1.77804     0.49692
 H     3.91075    -0.29364     1.39637
 H     3.15872    -1.66895     2.27229
