   30
 
 C     0.00000     0.00000     0.00000
 C     1.36955     0.00000     0.00000
 C     2.07733     1.23133     0.00000
 C     1.40923     2.43079     0.00002
 C    -0.01299     2.45065     0.00039
 C    -0.71950     1.22741     0.00156
 C    -2.14164     1.24679     0.00333
 C    -2.81009     2.44599     0.00404
 C    -2.10233     3.67721     0.00177
 C    -0.73283     3.67792     0.00068
 C    -4.28434     2.52121     0.00528
 O    -4.96076     3.51764    -0.03056
 O    -4.83182     1.27732     0.05535
 C    -6.25541     1.22720     0.05913
 C     3.55153     1.15451    -0.00125
 O     4.22552     0.15630    -0.03552
 O     4.10151     2.39740     0.04424
 C     5.52528     2.44442     0.04412
 H    -0.55777    -0.93625    -0.00031
 H     1.94045    -0.93310    -0.00107
 H     1.95174     3.37962    -0.00048
 H    -2.68357     0.29768     0.00460
 H    -2.67370     4.61003     0.00039
 H    -0.17517     4.61423    -0.00084
 H    -6.64973     1.74678     0.93927
 H    -6.65252     1.67621    -0.85765
 H    -6.46282     0.15194     0.10207
 H     5.92317     1.90679     0.91178
 H     5.91633     2.01225    -0.88327
 H     5.73539     3.51817     0.10694
