   10
 
 C     0.00000     0.00000     0.00000
 P     1.87424     0.00000     0.00000
 C     2.39425     1.80066     0.00000
 H     2.19575    -0.42885    -1.38974
 H    -0.42375     0.65069    -0.80092
 H    -0.42375    -1.02158    -0.14579
 H    -0.42375     0.35829     0.96773
 H     1.95673     2.36807    -0.85501
 H     2.08795     2.33017     0.93286
 H     3.50178     1.92187    -0.05580
