   13
 
 C     0.00000     0.00000     0.00000
 C     1.53903     0.00000     0.00000
 C     2.08815     1.43718     0.00000
 C     2.01742    -0.69611    -1.19318
 N     2.38786    -1.23329    -2.14602
 C     2.01742    -0.69794     1.19228
 N     2.38921    -1.23793     2.14322
 H    -0.40005     0.51455     0.88383
 H    -0.40801    -1.02026     0.00201
 H    -0.39988     0.51100    -0.88595
 H     1.74911     1.99485     0.88325
 H     3.18689     1.45434     0.00321
 H     1.75452     1.99271    -0.88664
