   13
 
 O     0.00000     0.00000     0.00000
 N     1.36349     0.00000     0.00000
 C     1.78190     1.25774     0.00000
 C     0.56689     2.10582     0.00014
 N    -0.46983     1.28041     0.00019
 C     3.17888     1.71236    -0.00021
 C     0.51336     3.57408    -0.00049
 H     3.40725     2.32245    -0.89015
 H     3.89003     0.86630     0.00128
 H     3.40680     2.32536     0.88785
 H    -0.52559     3.95106     0.00267
 H     1.00610     3.99794    -0.89151
 H     1.01218     3.99924     0.88650
