   13
 
 P     0.00000     0.00000     0.00000
 O     1.48588     0.00000     0.00000
 O    -0.56344     1.56046     0.00000
 O    -0.83853    -0.83870     0.89310
 O    -0.63287    -0.35688    -1.47474
 C    -0.17879     2.48667     1.00974
 C    -0.18331     0.27303    -2.67634
 H    -0.54353     2.20972     2.00805
 H    -0.69662     3.39769     0.67153
 H     0.90292     2.67386     1.04691
 H    -0.55572    -0.42577    -3.44062
 H    -0.65750     1.25513    -2.80238
 H     0.90476     0.37363    -2.77698
