   19
 
 C     0.00000     0.00000     0.00000
 C     1.39375     0.00000     0.00000
 C     2.09145     1.20538     0.00000
 C     1.38919     2.41250    -0.00018
 C    -0.00770     2.41502     0.00239
 C    -0.69937     1.20677     0.00354
 C     2.11906     3.72036    -0.00484
 N     2.90568     3.85300     1.29100
 O     2.46583     4.64306     2.09786
 O     3.87696     3.14472     1.42957
 N     3.07602     3.83931    -1.17792
 O     2.85849     3.14615    -2.14609
 O     3.96104     4.66180    -1.06992
 H    -0.54466    -0.94401    -0.00146
 H     1.94016    -0.94297    -0.00117
 H     3.18476     1.20061    -0.00007
 H    -0.56256     3.35293     0.00359
 H    -1.78843     1.20403     0.00610
 H     1.41380     4.60323    -0.07457
