    9
 
 C     0.00000     0.00000     0.00000
 N     1.50412     0.00000     0.00000
 N    -0.53668     1.40400     0.00000
 H    -0.36305    -0.54909     0.90764
 H    -0.38275    -0.53481    -0.90833
 O     2.03697    -0.75846    -0.78148
 O     2.05797     0.72232     0.79741
 O    -0.05011     2.18406    -0.78707
 O    -1.44637     1.62704     0.77025
