   12
 
 O     0.14904    -0.35853     0.41065
 C     1.44646    -0.08787    -0.04826
 O     1.72806     1.28417    -0.00782
 O     1.98191     1.63679     1.36299
 C     0.95666     2.49662     1.77922
 O    -0.23650     1.79792     2.01300
 H    -0.45600     0.40261     0.25665
 H     1.52299    -0.32134    -1.12883
 H     2.10075    -0.69773     0.59642
 H     0.68621     3.26379     1.03410
 H     1.35177     2.90123     2.73247
 H    -0.06430     0.87078     2.29769
