   34
 
 C     0.00000     0.00000     0.00000
 C     1.52860     0.00000     0.00000
 C     2.08034     1.43222     0.00000
 C     3.61226     1.41542     0.00416
 C     4.17853     2.83883     0.00383
 C     5.68749     2.81486     0.01082
 C     6.36585     4.16457     0.00415
 C     7.88901     4.00972     0.02149
 C     8.58107     5.37669     0.01714
 C    10.10643     5.20770     0.03533
 C    10.80690     6.56603     0.03189
 O     6.31203     1.78520     0.02102
 H    -0.40139     0.50653    -0.88446
 H    -0.40151     0.50938     0.88281
 H    -0.39595    -1.02177     0.00174
 H     1.90570    -0.55160    -0.88230
 H     1.90567    -0.55099     0.88280
 H     1.70390     1.97978    -0.88364
 H     1.70001     1.98131     0.88114
 H     3.99564     0.85648    -0.87265
 H     3.99131     0.85954     0.88480
 H     3.81252     3.39546    -0.88141
 H     3.80576     3.39802     0.88493
 H     6.04828     4.73954    -0.88806
 H     6.03051     4.75748     0.87806
 H     8.21584     3.40569    -0.84839
 H     8.19759     3.42131     0.90857
 H     8.27645     5.95671    -0.87351
 H     8.25771     5.97185     0.89113
 H    10.43077     4.61121    -0.83863
 H    10.41155     4.62646     0.92637
 H    10.55050     7.14753    -0.86039
 H    10.52834     7.16356     0.90680
 H    11.89649     6.44986     0.04666
