   33
 
 C    -0.04862    -0.35630    -0.04240
 C     1.33917    -0.96130     0.16919
 C     2.37584     0.13553     0.44845
 C     3.77506    -0.46664     0.59829
 C     4.80988     0.63323     0.86007
 O     6.10847     0.08530     0.96120
 C     6.71326    -0.21558    -0.29135
 C     8.08432    -0.78720     0.07993
 C     9.08043     0.33163     0.40373
 C    10.46042    -0.24799     0.74044
 C    11.46046     0.86352     1.06016
 H    -0.38124     0.20117     0.84024
 H    -0.05926     0.33459    -0.89250
 H    -0.79539    -1.13283    -0.24170
 H     1.31540    -1.68133     1.00898
 H     1.63531    -1.54609    -0.72183
 H     2.09809     0.69129     1.36416
 H     2.36563     0.87801    -0.37195
 H     3.79891    -1.20156     1.42539
 H     4.04645    -1.03745    -0.30854
 H     4.67757     1.08959     1.86027
 H     4.77520     1.42753     0.09639
 H    11.13467     1.46107     1.91910
 H    11.58540     1.54591     0.21218
 H     6.79066     0.70538    -0.89352
 H     6.09743    -0.95469    -0.83177
 H     7.97040    -1.45654     0.95786
 H     8.46204    -1.41887    -0.74367
 H     8.69882     0.93134     1.25325
 H     9.16021     1.03208    -0.44736
 H    10.37921    -0.94028     1.59960
 H    10.83081    -0.85588    -0.10628
 H    12.44669     0.45202     1.30124
