   24
 
 N     0.00000     0.00000     0.00000
 N     1.25298     0.00000     0.00000
 C     1.90726     1.26980     0.00000
 C     1.26132     2.51300     0.00286
 C     2.02032     3.67914     0.00287
 C     3.41287     3.60928    -0.00027
 C     4.05410     2.37025    -0.00389
 C     3.30912     1.19598    -0.00411
 C    -0.65397    -1.26990     0.00075
 C    -0.00761    -2.51300     0.00548
 C    -0.76597    -3.67938     0.00638
 C    -2.15856    -3.61009     0.00272
 C    -2.80039    -2.37152    -0.00202
 C    -2.05573    -1.19687    -0.00304
 H     0.17068     2.55789     0.00522
 H     1.52381     4.64815     0.00532
 H     4.00248     4.52464     0.00008
 H     5.14178     2.32157    -0.00664
 H     3.79910     0.22143    -0.00715
 H     1.08306    -2.55743     0.00850
 H    -0.26925    -4.64830     0.00993
 H    -2.74765    -4.52575     0.00346
 H    -3.88808    -2.32325    -0.00492
 H    -2.54632    -0.22265    -0.00679
