   24
 
 C     0.00000     0.00000     0.00000
 C     1.39452     0.00000     0.00000
 C     2.09030     1.20756     0.00000
 C     1.39304     2.41496    -0.01061
 C    -0.00137     2.41769    -0.01564
 C    -0.68852     1.20827    -0.00015
 S    -2.48809     1.21080    -0.02513
 O    -2.89189    -0.19172    -0.30451
 C    -2.72655     1.43383     1.74626
 C    -2.46715     2.66682     2.33524
 C    -3.20741     0.37286     2.50618
 C    -3.42678     0.54497     3.87264
 C    -3.16298     1.77572     4.47073
 C    -2.68370     2.83591     3.70224
 H    -0.54280    -0.95252    -0.00428
 H     1.93782    -0.94332     0.00339
 H     3.17892     1.20825     0.00753
 H     1.93742     3.35647    -0.01584
 H    -0.52828     3.37130    -0.03427
 H    -2.09237     3.50824     1.75290
 H    -3.41542    -0.59942     2.04272
 H    -3.80165    -0.28392     4.47032
 H    -3.32983     1.90935     5.53801
 H    -2.47687     3.79595     4.16951
