   28
 
 C     0.00000     0.00000     0.00000
 C     1.39425     0.00000     0.00000
 C     2.09141     1.20706     0.00000
 C     1.38869     2.41125     0.00274
 C    -0.00550     2.41476    -0.00278
 C    -0.69957     1.20607    -0.00212
 S     2.26586     3.93369    -0.01023
 S     2.59051     4.48789     2.02549
 C     3.46553     6.01153     2.01519
 C     2.76133     7.21478     2.02193
 C     3.45705     8.42271     2.02481
 C     4.85129     8.42472     2.02528
 C     5.55233     7.21949     2.02432
 C     4.85972     6.00999     2.02047
 O     1.40930     4.95946    -0.55903
 O     3.58047     3.70909    -0.56543
 O     3.44751     3.46225     2.57385
 O     1.27500     4.71055     2.57958
 H    -0.54381    -0.94426     0.00176
 H     1.93873    -0.94207     0.00130
 H     3.18831     1.19121    -0.00467
 H    -0.56963     3.35560    -0.00980
 H    -1.78766     1.20425    -0.00261
 H     1.66440     7.22926     2.02680
 H     2.91116     9.36397     2.02584
 H     5.39397     9.36965     2.02631
 H     6.64044     7.22263     2.02525
 H     5.42487     5.06974     2.02416
