   24
 
 C     0.00000     0.00000     0.00000
 S     3.03668     0.00000     0.00000
 C     3.14428     1.77048     0.00000
 C     2.88595     2.45295     1.18764
 C     2.98195     3.84345     1.21523
 C     3.33002     4.54248     0.06043
 C     3.58855     3.85321    -1.12343
 C     3.49705     2.46265    -1.15665
 C    -0.74679     1.12031    -0.36043
 C    -1.84280     1.49342     0.41609
 C    -2.18120     0.75291     1.54760
 C    -1.42873    -0.36575     1.90247
 C    -0.33467    -0.74719     1.12741
 S     1.37020    -0.46971    -1.02289
 H     2.60577     1.91799     2.09705
 H     2.78125     4.38226     2.13955
 H     3.39997     5.62906     0.08335
 H     3.86119     4.40021    -2.02386
 H     3.70144     1.93438    -2.08973
 H    -0.48835     1.71315    -1.23993
 H    -2.43147     2.36622     0.13932
 H    -3.03448     1.04959     2.15584
 H    -1.69418    -0.94259     2.78625
 H     0.24551    -1.62604     1.41459
