   22
 
 C    -0.03699     0.00081     0.00761
 C     1.48314     0.09140    -0.09087
 C     1.92171     1.56146    -0.20940
 N     3.37681     1.58056    -0.44238
 N     4.03430     2.30065     0.32973
 C     5.48923     2.32180     0.09598
 C     5.92350     3.79336    -0.02488
 C     7.44324     3.88871    -0.12391
 H    -0.42056     0.54987     0.87510
 H    -0.52451     0.40744    -0.88563
 H    -0.36370    -1.04093     0.11082
 H     1.85067    -0.48393    -0.96423
 H     1.95655    -0.37381     0.79522
 H     1.45092     2.03957    -1.09919
 H     1.59534     2.14101     0.68123
 H     5.96187     1.84609     0.98566
 H     5.81620     1.74220    -0.79419
 H     5.44843     4.25520    -0.91187
 H     5.55417     4.36878     0.84711
 H     7.93265     3.48331     0.76848
 H     7.82806     3.34141    -0.99219
 H     7.76639     4.93170    -0.22707
