   22
 
 C     0.00000     0.00000     0.00000
 C     1.53120     0.00000     0.00000
 C     2.05008     1.43610     0.00000
 S     3.88859     1.38920     0.00638
 S     4.57110     3.26192     0.09005
 C     4.68388     3.91850    -1.62386
 C     5.28951     5.31918    -1.56463
 C     5.39643     5.89830    -2.97811
 H    -0.40349     0.50494    -0.88479
 H    -0.40324     0.50646     0.88424
 H    -0.39332    -1.02326     0.00104
 H     1.89987    -0.55882    -0.88446
 H     1.89905    -0.55775     0.88579
 H     1.68555     1.98213    -0.88775
 H     1.68072     1.98398     0.88633
 H     3.68235     3.94587    -2.08796
 H     5.30675     3.25080    -2.24690
 H     4.67552     5.99496    -0.93499
 H     6.29564     5.29968    -1.09753
 H     6.02916     5.27694    -3.62191
 H     4.41400     5.97929    -3.45653
 H     5.83513     6.90286    -2.95970
