   24
 
 O    -0.02079    -0.01099     0.08686
 S     1.48620     0.66918     0.19596
 O     1.08437     2.23838     0.56713
 C    -0.88215     0.08557    -1.02307
 C     0.88137     3.26702    -0.37105
 O     2.01656     0.70232    -1.16837
 C    -2.02401     1.03972    -0.65658
 C     2.22024     3.77188    -0.91769
 C    -3.00475     1.16348    -1.81780
 C     2.02320     5.10472    -1.63480
 H    -1.24397    -0.95321    -1.16174
 H    -0.34118     0.40022    -1.93386
 H     0.36554     4.03826     0.23766
 H     0.21016     2.92541    -1.17857
 H    -1.62216     2.03117    -0.37448
 H    -2.53626     0.66932     0.25309
 H     2.65771     3.02237    -1.61008
 H     2.94832     3.87829    -0.09134
 H    -3.82139     1.85229    -1.57107
 H    -3.46121     0.19816    -2.06748
 H    -2.51793     1.54467    -2.72290
 H     2.96574     5.46174    -2.06721
 H     1.66329     5.88238    -0.95199
 H     1.30194     5.01817    -2.45584
