   22
 
 C     0.00000     0.00000     0.00000
 C     1.53222     0.00000     0.00000
 C     2.05921     1.43158     0.00000
 S     3.90667     1.43140    -0.00909
 C     4.22324     2.57545     1.40482
 C     5.12316     1.90044     2.43564
 C     5.37726     2.84458     3.61514
 O     4.28003     2.20771    -1.21926
 H    -0.39626    -1.02115    -0.00450
 H    -0.40051     0.51011    -0.88380
 H    -0.40398     0.50526     0.88371
 H     1.89627    -0.55594    -0.88852
 H     1.89784    -0.56141     0.88231
 H     1.65067     1.99442     0.85227
 H     1.71250     1.97036    -0.90392
 H     3.29028     2.92175     1.87411
 H     4.70727     3.48877     1.00616
 H     6.09483     1.61247     1.98408
 H     4.67003     0.96144     2.81009
 H     6.02856     2.37890     4.36277
 H     4.44508     3.12177     4.11902
 H     5.86416     3.77120     3.28930
