   98
 
 C     0.00000     0.00000     0.00000
 C     1.52869     0.00000     0.00000
 C     2.07834     1.43276     0.00000
 C     3.61213     1.42518    -0.00704
 C     4.16360     2.85660    -0.00225
 C     5.69746     2.84479    -0.01650
 C     6.25261     4.27474    -0.00704
 C     7.78630     4.25924    -0.02841
 C     8.34505     5.68774    -0.01431
 C     9.87860     5.66869    -0.04268
 C    10.44073     7.09581    -0.02401
 C    11.97409     7.07348    -0.05918
 C    12.53936     8.49929    -0.03609
 C    14.07251     8.47400    -0.07777
 C    14.64067     9.89859    -0.05041
 C    16.17360     9.87065    -0.09832
 C    16.74438    11.29410    -0.06687
 C    18.27707    11.26383    -0.12067
 C    18.85020    12.68625    -0.08534
 C    20.38264    12.65396    -0.14463
 C    20.95784    14.07544    -0.10565
 C    22.49004    14.04145    -0.17005
 C    23.06703    15.46212    -0.12765
 C    24.59899    15.42673    -0.19666
 C    25.17750    16.84667    -0.15106
 C    26.70924    16.81015    -0.22419
 C    27.28897    18.22950    -0.17561
 C    28.82058    18.19201    -0.25218
 C    29.40133    19.61088    -0.20096
 C    30.93264    19.57302    -0.28023
 C    31.51615    20.99132    -0.22647
 C    33.04241    20.95655    -0.30724
 H    -0.39690    -1.02101     0.00170
 H    -0.40036     0.50765    -0.88456
 H    -0.40051     0.51079     0.88270
 H     1.90596    -0.54938    -0.88313
 H     1.90637    -0.54960     0.88280
 H     1.70502     1.98028     0.88519
 H     1.69724     1.98379    -0.87958
 H     3.98333     0.87992    -0.89477
 H     3.99223     0.87040     0.87087
 H     3.79668     3.40070     0.88785
 H     3.78075     3.41321    -0.87770
 H     6.06296     2.30296    -0.90869
 H     6.08002     2.28453     0.85687
 H     5.89131     4.81539     0.88747
 H     5.86732     4.83685    -0.87790
 H     8.14645     3.72100    -0.92494
 H     8.17157     3.69369     0.84034
 H     7.98913     6.22480     0.88450
 H     7.95725     6.25514    -0.88061
 H    10.23344     5.13404    -0.94347
 H    10.26641     5.09794     0.82152
 H    10.08996     7.62926     0.87897
 H    10.05045     7.66832    -0.88582
 H    12.32383     6.54239    -0.96405
 H    12.36439     6.49774     0.80059
 H    12.19350     9.02919     0.87086
 H    12.14670     9.07670    -0.89355
 H    14.41742     7.94642    -0.98653
 H    14.46521     7.89351     0.77770
 H    14.29945    10.42501     0.86032
 H    14.24570    10.48066    -0.90366
 H    16.51394     9.34650    -1.01078
 H    16.56861     9.28564     0.75300
 H    16.40750    11.81714     0.84742
 H    16.34721    11.88057    -0.91609
 H    18.61315    10.74300    -1.03658
 H    18.67430    10.67461     0.72670
 H    18.51731    13.20604     0.83226
 H    18.45096    13.27680    -0.93075
 H    20.71480    12.13628    -1.06375
 H    20.78196    12.06083     0.69903
 H    20.62863    14.59214     0.81502
 H    20.55663    14.66979    -0.94748
 H    22.81861    13.52679    -1.09214
 H    22.89135    13.44473     0.67012
 H    22.74111    15.97589     0.79583
 H    22.66400    16.05991    -0.96616
 H    24.92436    14.91491    -1.12146
 H    25.00212    14.82671     0.64029
 H    24.85447    17.35771     0.77495
 H    24.77283    17.44760    -0.98655
 H    27.03182    16.30099    -1.15142
 H    27.11403    16.20717     0.60982
 H    26.96848    18.73806     0.75263
 H    26.88304    18.83323    -1.00848
 H    29.14099    17.68531    -1.18149
 H    29.22689    17.58659     0.57931
 H    29.08258    20.11717     0.72910
 H    28.99414    20.21687    -1.03155
 H    31.25213    19.06863    -1.21095
 H    31.34088    18.96541     0.54855
 H    31.19838    21.49601     0.70532
 H    31.10778    21.59985    -1.05523
 H    33.46536    21.96629    -0.26733
 H    33.38348    20.49310    -1.23962
 H    33.47435    20.38534     0.52200
