    9
 
 C     0.00000     0.00000     0.00000
 C     1.33187     0.00000     0.00000
 C     2.11397     1.26672     0.00000
 H     1.48582     2.16822     0.00000
 H     2.76690     1.32905    -0.88503
 H     2.76690     1.32905     0.88503
 H     1.93766    -0.90833     0.00000
 I    -1.12814    -1.77426    -0.00000
 H    -0.63032     0.87743     0.00000
