   62
 
 C     0.00000     0.00000     0.00000
 C     1.52869     0.00000     0.00000
 C     2.08012     1.43208     0.00000
 C     3.61388     1.42032    -0.01446
 C     4.17107     2.84947     0.00118
 C     5.70467     2.82970    -0.02897
 C     6.26940     4.25560     0.00224
 C     7.80247     4.22881    -0.04285
 C     8.37443     5.65142     0.00336
 C     9.90691     5.61831    -0.05558
 C    10.48548     7.03770     0.00471
 C    12.01731     6.99917    -0.06666
 C    12.60175     8.41556     0.00642
 C    14.13291     8.37256    -0.07571
 C    14.72229     9.78628     0.00848
 C    16.25291     9.73965    -0.08249
 C    16.84624    11.15117     0.01072
 C    18.37623    11.10232    -0.08693
 C    18.97428    12.51205     0.01283
 C    20.49905    12.46532    -0.08815
 H    -0.39682    -1.02104     0.00190
 H    -0.40034     0.50750    -0.88466
 H    -0.40047     0.51101     0.88258
 H     1.90547    -0.54973    -0.88319
 H     1.90603    -0.55004     0.88271
 H     1.71212     1.97880     0.88779
 H     1.69604     1.98528    -0.87685
 H     3.97904     0.88181    -0.90879
 H     3.99611     0.85623     0.85666
 H     3.81584     3.38493     0.90110
 H     3.78198     3.41776    -0.86387
 H     6.05786     2.30260    -0.93485
 H     6.09245     2.25067     0.82982
 H     5.92566     4.77967     0.91327
 H     5.87515     4.83860    -0.85061
 H     8.14456     3.71309    -0.95945
 H     8.19560     3.63569     0.80382
 H     8.04121     6.16424     0.92465
 H     7.97552     6.24818    -0.83773
 H    10.23866     5.11348    -0.98199
 H    10.30471     5.01212     0.77956
 H    10.16167     7.53981     0.93523
 H    10.08256     7.64711    -0.82534
 H    12.33984     6.50445    -1.00172
 H    12.41917     6.38129     0.75788
 H    12.28604     8.90785     0.94495
 H    12.19549     9.03616    -0.81367
 H    14.44757     7.88679    -1.01810
 H    14.53821     7.74464     0.73950
 H    14.41337    10.27003     0.95369
 H    14.31355    10.41641    -0.80309
 H    16.56128     9.26144    -1.03079
 H    16.66111     9.10370     0.72498
 H    16.54220    11.62787     0.96108
 H    16.43545    11.78872    -0.79399
 H    18.68068    10.62988    -1.03922
 H    18.78739    10.46048     0.71416
 H    18.67289    12.98418     0.96683
 H    18.56207    13.15526    -0.78728
 H    20.93294    13.46849    -0.01445
 H    20.82397    12.03503    -1.04195
 H    20.93491    11.85808     0.71295
