    9
 
 S     0.00000     0.00000     0.00000
 C     1.65268     0.00000     0.00000
 C     2.48221     1.24274     0.00000
 N     2.34480    -1.17066     0.00038
 H     3.12066     1.31603     0.89389
 H     3.13157     1.30899    -0.88658
 H     1.86230     2.15858    -0.00826
 H     3.34316    -1.20600     0.00014
 H     1.87114    -2.05845     0.00047
