   10
 
 C     0.00000     0.00000     0.00000
 C     1.51548     0.00000     0.00000
 H     1.92800     1.02837     0.00000
 H     1.92653    -0.51407     0.89096
 S     2.08986    -0.87424    -1.52310
 H    -0.41251     0.51070    -0.89259
 H    -0.41090    -1.02870     0.00215
 S    -0.57457     0.88606     1.51605
 H    -1.89414     0.69474     1.39292
 H     3.40988    -0.85721    -1.29876
