   19
 
 C     0.00000     0.00000     0.00000
 C     1.39116     0.00000     0.00000
 C     2.10414     1.19926     0.00000
 C     1.38926     2.39681     0.00053
 C    -0.01642     2.41708     0.00142
 C    -0.69982     1.21058     0.00142
 O     1.93059     3.64015    -0.00081
 C     3.35907     3.74255    -0.00196
 C     3.60386     5.24470    -0.00200
 H    -0.54553    -0.93905    -0.00011
 H     1.93387    -0.94486    -0.00006
 H     3.18685     1.18311    -0.00047
 H    -0.53974     3.36904     0.00209
 H    -1.78958     1.20542     0.00226
 H     3.75778     3.25197     0.90324
 H     3.75594     3.25248    -0.90829
 H     3.16525     5.71884    -0.89052
 H     3.14184     5.72197     0.87306
 H     4.67483     5.47243     0.01149
