   18
 
 C     0.00000     0.00000     0.00000
 C     2.79243     0.00000     0.00000
 C     0.69843     1.20605     0.00000
 C     0.69837    -1.20632    -0.00000
 C     2.09107     1.20764     0.00000
 C     2.09109    -1.20790     0.00000
 H    -1.08720    -0.00007     0.00000
 H     0.15449     2.14857    -0.00000
 H     0.15436    -2.14875    -0.00000
 H     2.63373     2.15011     0.00000
 H     2.63381    -2.15031     0.00000
 C     4.29155    -0.00012    -0.00000
 C     4.81413    -0.00016    -1.43894
 H     4.68496    -0.88133     0.54673
 H     4.68519     0.88083     0.54699
 H     4.46722    -0.88365    -1.98792
 H     5.90896     0.00148    -1.46496
 H     4.46454     0.88156    -1.98912
