   10
 
 C     0.00000     0.00000     0.00000
 C     1.53531     0.00000     0.00000
 N     2.13271     1.34929     0.00000
 H     1.92130    -0.54444     0.89027
 H     1.92117    -0.54436    -0.89036
 H    -0.40319     0.50285    -0.88483
 H    -0.39262    -1.02279     0.00113
 H    -0.40335     0.50493     0.88359
 H     1.87070     1.87466    -0.81734
 H     1.86933     1.87536     0.81646
