   19
 
 C     0.00000     0.00000     0.00000
 C     1.39285     0.00000     0.00000
 C     2.08458     1.21164     0.00000
 C     1.38906     2.41782     0.00010
 C    -0.00576     2.41268    -0.00002
 C    -0.70338     1.20804    -0.00022
 S    -0.98980    -1.46626    -0.00003
 C     0.20856    -2.86376    -0.00228
 C    -0.57787    -4.16394    -0.00177
 H     1.96374    -0.92592     0.00007
 H     3.17340     1.21103    -0.00002
 H     1.93046     3.36109     0.00022
 H    -0.55217     3.35463    -0.00003
 H    -1.79419     1.22676    -0.00045
 H     0.86043    -2.80112     0.88859
 H     0.85967    -2.80046    -0.89329
 H    -1.22843    -4.26316     0.87848
 H    -1.21224    -4.27283    -0.89256
 H     0.10255    -5.02726     0.00911
