   12
 
 N     0.00000     0.00000     0.00000
 C     1.47321     0.00000     0.00000
 C     2.11498     1.40984     0.00000
 N     2.05740     2.10644     1.29642
 H    -0.38075     0.48690     0.79277
 H    -0.37699     0.40674    -0.84011
 H     1.81670    -0.58370     0.88211
 H     1.81458    -0.57126    -0.89205
 H     3.18319     1.33879    -0.30430
 H     1.62667     2.05877    -0.75999
 H     1.11428     2.22182     1.62501
 H     2.58983     1.62916     2.00511
