   19
 
 C     0.00000     0.00000     0.00000
 C     1.21033     0.00000     0.00000
 C     2.64337     0.00392     0.00000
 C     3.19190    -1.42927    -0.06606
 C     4.69005    -1.40271    -0.05957
 O     5.16348    -2.67011    -0.11850
 O     5.41317    -0.44094    -0.01104
 C     6.59267    -2.81602    -0.12003
 H    -1.02690     0.00246     0.00013
 H     3.04226     0.60491    -0.85549
 H     3.04273     0.52353     0.90707
 H     2.81498    -2.03598     0.78599
 H     2.82183    -1.95164    -0.97521
 H     6.99737    -2.27968    -0.99667
 H     6.99175    -2.36148     0.80405
 C     6.81345    -4.31764    -0.18752
 H     7.88219    -4.56006    -0.19024
 H     6.35219    -4.82842     0.66821
 H     6.36591    -4.74725    -1.09359
