   18
 
 C     0.00000     0.00000     0.00000
 C     1.53044     0.00000     0.00000
 C     2.01552     1.44494     0.00000
 O     2.96648     1.57461    -0.94900
 C     3.54816     2.87014    -1.13347
 C     2.58763     3.76769    -1.89187
 C     2.04937    -0.67066     1.17325
 N     2.46102    -1.22134     2.10245
 O     1.63655     2.33628     0.70754
 H    -0.40391     0.56672     0.85424
 H    -0.40203     0.45913    -0.91242
 H    -0.40215    -1.01993     0.06267
 H     1.90685    -0.52284    -0.93057
 H     3.83273     3.28827    -0.15052
 H     4.45473     2.61753    -1.71668
 H     2.25011     3.30041    -2.82503
 H     1.69272     3.99160    -1.29281
 H     3.05568     4.72548    -2.14877
