   21
 
 C     0.00000     0.00000     0.00000
 C     1.33336     0.00000     0.00000
 C     2.13067     1.26337     0.00000
 C     3.63832     0.99482     0.00525
 C     4.38835     2.29257     0.00644
 O     5.72058     2.04188     0.01193
 C     6.58394     3.18929     0.01357
 C     7.98576     2.60305     0.02156
 O     3.94219     3.41064     0.00322
 H    -0.60288     0.89418     0.00018
 H    -0.59447    -0.89929    -0.00019
 H     1.90472    -0.92687    -0.00017
 H     1.86188     1.88957    -0.88073
 H     1.85650     1.89372     0.87605
 H     3.93612     0.38665    -0.87587
 H     3.93037     0.38950     0.89042
 H     6.37152     3.78781    -0.89009
 H     6.36266     3.79206     0.91234
 H     8.15102     1.97475     0.90672
 H     8.15764     1.96724    -0.85698
 H     8.74441     3.39384     0.02088
