   23
 
 C     0.00000     0.00000     0.00000
 C     1.52025     0.00000     0.00000
 O     2.00679     1.34216     0.00000
 C     1.96448     2.02752     1.17158
 C     2.48777     3.41375     0.94970
 C     1.80126     4.40369     1.90967
 C     0.32566     4.57469     1.53494
 C     2.52495     5.75291     1.85572
 O     1.58169     1.53137     2.19915
 H    -0.39894     0.63696    -0.79868
 H    -0.39377     0.38214     0.95311
 H    -0.40027    -1.00977    -0.14122
 H     1.94718    -0.39095    -0.94254
 H     1.94069    -0.54685     0.86302
 H     3.58645     3.41247     1.11341
 H     2.34654     3.72926    -0.10484
 H     1.86297     3.99559     2.95100
 H     0.20557     4.96505     0.51934
 H    -0.21099     3.61964     1.59294
 H    -0.17771     5.26889     2.21730
 H     2.50719     6.18115     0.84776
 H     3.57242     5.66120     2.16218
 H     2.05161     6.47897     2.52692
