   28
 
 C     0.00000     0.00000     0.00000
 C     1.55281     0.00000     0.00000
 C    -0.47716     1.37876     0.00000
 C    -0.45891    -0.66006     1.21865
 C    -0.60519    -0.76099    -1.26099
 C    -2.13255    -0.77195    -1.12422
 C    -0.08387    -2.20035    -1.27886
 C    -0.18798    -0.00951    -2.54368
 H    -0.57903     1.02834    -2.51278
 C    -0.67370    -0.68198    -3.82713
 N    -0.80574    -1.19330     2.18381
 N    -0.84687     2.47374    -0.00602
 H     1.91887    -1.04688     0.01697
 C     2.13244     0.76836     1.18323
 H     1.92436     0.43739    -0.94860
 H    -2.55305     0.24079    -1.10218
 H    -2.46489    -1.28853    -0.21545
 H    -2.60279    -1.29283    -1.96787
 H     0.97979    -2.25334    -1.53492
 H    -0.22387    -2.70410    -0.31456
 H    -0.61981    -2.80210    -2.02527
 H     0.91465     0.08467    -2.58638
 H    -0.23709    -1.67833    -3.95689
 H    -1.76412    -0.78849    -3.84741
 H    -0.39184    -0.08844    -4.70594
 H     1.79598     0.36185     2.14579
 H     1.85380     1.83017     1.16200
 H     3.22929     0.72428     1.18168
