   18
 
 C     0.00000     0.00000     0.00000
 C     1.52055     0.00000     0.00000
 O     1.86941     1.39301     0.00000
 C     3.19687     1.67349    -0.00469
 O     4.03398     0.80170    -0.00875
 C     3.41109     3.12378    -0.00426
 C     4.65707     3.61512    -0.01180
 C     4.95630     5.06858    -0.01216
 H    -0.39751     0.51352    -0.88529
 H    -0.39745     0.52490     0.87873
 H    -0.39509    -1.02163     0.00689
 H     1.95152    -0.47024    -0.90127
 H     1.95288    -0.46953     0.90084
 H     2.51577     3.74229     0.00232
 H     5.53063     2.95151    -0.01829
 H     5.53979     5.35374    -0.90238
 H     4.05551     5.69869    -0.00195
 H     5.55788     5.35081     0.86686
