   10
 
 C     0.00000     0.00000     0.00000
 C     1.53588     0.00000     0.00000
 P     2.45744     1.65421     0.00000
 H     1.89042    -0.60098     0.89006
 H     1.89041    -0.60090    -0.89008
 H    -0.44386     0.47305    -0.88687
 H    -0.36517    -1.04071     0.00123
 H    -0.44417     0.47528     0.88552
 H     1.85641     2.39519    -1.14820
 H     1.85246     2.39753     1.14464
