   19
 
 C     0.02896    -0.02280     0.07985
 C     1.26206     0.39863     0.36818
 C     1.92508     1.47985    -0.35681
 C     1.33131     2.59949    -0.77796
 C     3.36961     1.24753    -0.60747
 O     3.88335     0.29249    -1.13008
 O     4.08717     2.30066    -0.14750
 C     5.51232     2.21419    -0.30833
 C     6.02589     3.52040     0.27420
 H    -0.57584     0.38736    -0.71476
 H    -0.46316    -0.82143     0.61455
 H     1.85302    -0.05588     1.16825
 H     1.85285     3.39555    -1.29235
 H     0.27916     2.80388    -0.63055
 H     5.87285     1.32531     0.23781
 H     5.73759     2.10052    -1.38325
 H     5.61981     4.38504    -0.26710
 H     5.72526     3.63287     1.32468
 H     7.11921     3.57308     0.22699
