    8
 
 C     0.00000     0.00000     0.00000
 C     1.51183     0.00000     0.00000
 N     0.75629     1.26961     0.00000
 H    -0.55018    -0.21382     0.92009
 H    -0.55522    -0.32577    -0.87617
 H     2.06650    -0.32614    -0.87633
 H     2.06140    -0.21291     0.92050
 H     0.75107     1.78631    -0.87127
