   12
 
 P     0.00000     0.00000     0.00000
 O     1.44952     0.00000     0.00000
 C    -1.88682     1.67395     0.00000
 C    -1.87379     0.97574    -1.38140
 O    -0.72732     1.23540     0.74532
 O    -0.72436    -1.26177     0.65462
 O    -0.73000     0.09161    -1.43891
 H    -1.76937     2.77309    -0.05722
 H    -2.77680     1.42636     0.61007
 H    -2.76835     0.35241    -1.56988
 H    -1.72334     1.67422    -2.22732
 H    -0.01287    -1.90360     1.01621
