   11
 
 P     0.00000     0.00000     0.00000
 O     1.47841     0.00000     0.00000
 C    -1.17247     2.30180     0.00000
 C    -1.17534     1.77648    -1.46206
 O    -0.52803     1.34766     0.83240
 O    -0.81665    -1.16011     0.41534
 O    -0.52780     0.51182    -1.49856
 H    -0.60934     3.24611     0.10881
 H    -2.19202     2.43480     0.40468
 H    -2.19528     1.61809    -1.85640
 H    -0.61376     2.43267    -2.15144
