   24
 
 C     0.00000     0.00000     0.00000
 C     1.53924     0.00000     0.00000
 C     2.07966     1.43584     0.00000
 C     1.54779     2.21567    -1.20933
 C     0.01371     2.21104    -1.21970
 C    -0.51834     0.77163    -1.22849
 C    -0.55077    -1.43883    -0.02131
 C    -0.34933    -2.14322     1.32052
 H    -0.35988     0.51253     0.92259
 H     1.91540    -0.54559    -0.88474
 H     1.92043    -0.54665     0.88096
 H     3.18435     1.42496    -0.00898
 H     1.78678     1.94654     0.93645
 H     1.92660     3.25316    -1.19038
 H     1.93187     1.76605    -2.14403
 H    -0.36195     2.75919    -2.10237
 H    -0.37351     2.74889    -0.33478
 H    -1.62282     0.77735    -1.23560
 H    -0.20523     0.26084    -2.15695
 H    -1.62902    -1.42154    -0.26951
 H    -0.06630    -2.01603    -0.83024
 H     0.71117    -2.20919     1.58716
 H    -0.85897    -1.60946     2.13063
 H    -0.74649    -3.16387     1.29512
