   22
 
 C     0.00000     0.00000     0.00000
 C     1.51989     0.00000     0.00000
 O     2.00665     1.34364     0.00000
 C     1.97237     2.02377    -1.16901
 C     2.51867     3.42222    -0.94002
 N     3.76212     3.53789    -1.73214
 C     3.47162     3.77613    -3.16054
 O     1.53291     1.56439    -2.18933
 C     4.62531     4.60759    -1.18799
 H    -0.40080     0.63749     0.79699
 H    -0.39451     0.37915    -0.95417
 H    -0.40003    -1.00952     0.14321
 H     1.95019    -0.38881     0.94232
 H     1.94239    -0.54391    -0.86403
 H     1.73234     4.16243    -1.20812
 H     2.74650     3.56642     0.14307
 H     2.81865     2.96798    -3.54306
 H     2.99043     4.74009    -3.37733
 H     4.41707     3.71561    -3.72526
 H     4.17598     5.61088    -1.19880
 H     4.90846     4.35392    -0.15246
 H     5.55947     4.63809    -1.77543
