   12
 
 C     0.00000     0.00000     0.00000
 C     1.39445     0.00000     0.00000
 C     2.15656     1.16676     0.00000
 C     1.47865     2.38451     0.00000
 C     0.08446     2.41790     0.00000
 C    -0.65051     1.23199     0.00000
 H    -0.56341    -0.93043     0.00000
 H    -0.43359     3.37471    -0.00000
 F     2.02356    -1.16644     0.00000
 H    -1.73957     1.26722    -0.00000
 H     3.24360     1.13362     0.00000
 H     2.04444     3.31581     0.00000
