   12
 
 C     0.00000     0.00000     0.00000
 C     1.47600     0.00000     0.00000
 C     1.91457     1.28206     0.00000
 C    -0.43691     1.28307     0.00000
 C     0.74754     2.17589     0.00000
 C     0.74666     3.52489     0.00000
 H     1.65037     4.11339     0.00000
 H    -0.15782     4.11211     0.00000
 H     2.05510    -0.90175     0.00000
 H    -0.57937    -0.90127    -0.00000
 H     2.92306     1.64357     0.00000
 H    -1.44083     1.65202    -0.00000
