   19
 
 H     0.00234    -0.01185     0.15471
 N     1.00609    -0.09924     0.13268
 C     1.66752     1.11450    -0.35781
 C     1.29651     1.39054    -1.81347
 O     0.82870     0.62043    -2.60709
 C     3.19367     0.93197    -0.25696
 C     3.91894     2.27446    -0.32821
 C     5.39373     2.05046    -0.40508
 O     5.99661     1.05445    -0.70380
 O     6.05768     3.19294    -0.08202
 H     3.56377     0.24233    -1.04575
 H     3.66417     2.91854     0.54251
 H     3.59224     2.86624    -1.21760
 H     3.43161     0.41638     0.70160
 H     1.33779     1.98023     0.28073
 H     1.25141    -0.91907    -0.40483
 O     1.54442     2.68178    -2.14157
 H     1.32824     2.90914    -3.08025
 H     7.04108     3.10676    -0.12645
