   20
 
 C     0.00000     0.00000     0.00000
 C     1.54017     0.00000     0.00000
 C     2.10516     1.42211     0.00000
 O    -0.48117     0.74952     1.09842
 O     3.49826     1.41522     0.26137
 O     1.87227    -0.57564    -1.26098
 H     1.93330    -0.59705     0.86067
 H    -0.40744    -1.02879    -0.02148
 H    -0.42473     0.56400    -0.85740
 H     1.55816     2.08556     0.69934
 H     2.09253     1.87733    -1.01613
 N    -0.51035     0.06778     2.34548
 N     3.86785     1.26872     1.61891
 N     2.84723    -1.60539    -1.26051
 O    -0.12130    -1.07174     2.35044
 O    -0.93974     0.76663     3.21856
 O     2.97303     1.13734     2.41769
 O     5.05733     1.29884     1.76632
 O     3.27474    -1.96842    -0.19673
 O     3.08811    -1.96813    -2.37762
