   14
 
 C    -0.10508     0.28241     0.02207
 N    -0.78523    -0.82065    -0.28899
 N    -0.74559     1.42157     0.25325
 N     1.21925     0.25215     0.10346
 H    -1.74404     1.47999     0.17269
 H     1.72746    -0.60126    -0.03882
 H     1.72147     1.09714     0.33950
 H    -0.21609     2.24929     0.49100
 H    -1.78747    -0.81509    -0.34030
 H    -0.31237    -1.68483    -0.48088
 O     1.60257     3.05087     0.80868
 C     2.22423     4.05875     1.09930
 H     3.31595     4.05009     1.17526
 H     1.71118     5.00566     1.29392
