   53
 
 C     0.00000     0.00000     0.00000
 C     1.52885     0.00000     0.00000
 C     2.07736     1.43317     0.00000
 C     3.61122     1.42773     0.00131
 C     4.15942     2.86044    -0.00079
 C     5.69341     2.85305     0.00167
 C     6.24302     4.28519    -0.00246
 C     7.77695     4.27647     0.00097
 C     8.32782     5.70812    -0.00505
 C     9.86175     5.69820    -0.00044
 C    10.41364     7.12944    -0.00846
 H    -0.40052     0.50938     0.88347
 H    -0.40036     0.50889    -0.88382
 H    -0.39670    -1.02110     0.00021
 H     1.90627    -0.54957     0.88288
 H     1.90613    -0.54931    -0.88310
 H     1.70050     1.98159    -0.88306
 H     1.69845     1.98238     0.88177
 H     3.98824     0.87722    -0.88065
 H     3.98709     0.87943     0.88506
 H     3.78463     3.40779    -0.88554
 H     3.78133     3.41172     0.88018
 H     6.06788     2.30579     0.88666
 H     6.07036     2.30056    -0.87910
 H     5.86943     4.83157    -0.88834
 H     5.86507     4.83841     0.87736
 H     8.15049     3.73031     0.88704
 H     8.15408     3.72228    -0.87863
 H     7.95534     6.25337    -0.89209
 H     7.94971     6.26308     0.87361
 H    10.23417     5.15330     0.88687
 H    10.23913     5.14220    -0.87878
 H    10.04234     7.67339    -0.89682
 H    10.03512     7.68624     0.86885
 C    11.94755     7.11854    -0.00235
 C    12.50012     8.54955    -0.01270
 H    12.32556     6.56061    -0.87919
 H    12.31884     6.57537     0.88650
 H    12.13017     9.09195    -0.90257
 H    12.12111     9.10843     0.86308
 C    14.03406     8.53808    -0.00491
 H    14.40404     7.99641     0.88538
 H    14.41267     7.97820    -0.88021
 C    14.58725     9.96867    -0.01729
 H    14.20820    10.52987     0.85682
 H    14.21848    10.51043    -0.90790
 C    16.12181     9.95890    -0.00840
 C    16.67636    11.38350    -0.02146
 H    16.49128     9.41747     0.88278
 H    16.50121     9.39769    -0.88303
 H    17.77182    11.38312    -0.01454
 H    16.34148    11.95167     0.85347
 H    16.35270    11.93087    -0.91369
