   12
 
 P     0.00000     0.00000     0.00000
 N     1.67030     0.00000     0.00000
 N    -0.81132     1.45942     0.00000
 P     0.02330     2.90619     0.00764
 P     2.52859     1.43317     0.00009
 N     1.69299     2.87915     0.00351
Cl    -0.54783    -0.92428    -1.48198
Cl    -0.54235    -0.93038     1.48004
Cl     3.60764     1.42314     1.47834
Cl     3.60090     1.42621    -1.48316
Cl    -0.51174     3.85109    -1.46335
Cl    -0.50407     3.83340     1.49707
