   23
 
 C     2.05814    -0.21873     0.31930
 O     2.82366     0.12914    -0.83742
 C     2.26625     1.03703    -1.65372
 C     3.25235     1.29554    -2.81194
 C     3.26896     0.15399    -3.88199
 C     4.25836    -1.01797    -3.57141
 C     5.71216    -0.70736    -3.98362
 O     6.31593    -0.10130    -2.94915
 C     7.68892     0.24488    -3.14989
 O     1.20059     1.56204    -1.53158
 O     6.18877    -0.96759    -5.04761
 F     4.48356     1.49604    -2.33846
 F     2.93594     2.45363    -3.39437
 F     3.55900     0.66165    -5.08195
 F     2.03118    -0.32517    -4.02595
 F     3.85920    -2.12125    -4.20794
 F     4.19143    -1.34747    -2.28099
 H     2.59942    -1.09129     0.70792
 H     1.02881    -0.47601     0.04767
 H     2.07752     0.61357     1.03027
 H     7.92306     0.81557    -2.24177
 H     7.80930     0.86003    -4.04813
 H     8.29225    -0.66592    -3.21687
