   22
 
 O     0.00000     0.00000     0.00000
 C     1.20150     0.00000     0.00000
 C     2.15270     1.15212     0.00000
 C     1.38007     2.47284     0.04300
 C     2.34469     3.66347     0.04148
 C     1.56666     4.98251     0.08254
 C     2.53854     6.17936     0.08394
 N     1.86475     7.49000     0.12223
 O     1.89424    -1.17200    -0.00139
 H     2.84897     1.06899     0.86313
 H     2.80493     1.10169    -0.89953
 H     0.68579     2.53611    -0.81930
 H     0.72873     2.50431     0.93977
 H     3.03007     3.60104     0.90820
 H     2.98845     3.63217    -0.85835
 H     0.88382     5.04951    -0.78427
 H     0.92183     5.01680     0.97995
 H     3.22468     6.12041     0.95710
 H     3.18420     6.15422    -0.82154
 H     1.26010     7.62551    -0.67128
 H     1.32388     7.61061     0.96282
 H     1.31819    -1.97438    -0.00264
