    8
 
 C     0.00000     0.00000     0.00000
 C     1.51053     0.00000     0.00000
Br    -0.69899     1.82797     0.00000
Br    -0.69907    -0.91468     1.58256
Br    -0.69875    -0.91474    -1.58268
Br     2.20928    -1.82802    -0.00023
Br     2.20943     0.91447     1.58287
Br     2.20943     0.91224    -1.58410
