   14
 
 H     0.00000     0.00000     0.00000
 C     1.11974     0.00000     0.00000
 C     1.60801     1.45316     0.00000
 C     1.60547    -0.72279     1.25191
 C     1.60547    -0.72279    -1.25191
 H     2.70255     1.51069     0.00000
 H     1.25292     1.99546    -0.88333
 H     1.25261     1.99557     0.88315
 H     2.70000    -0.75099     1.30205
 H     1.24963    -0.22947     2.16321
 H     1.25079    -1.75908     1.27963
 H     2.70000    -0.75099    -1.30205
 H     1.25078    -1.75908    -1.27964
 H     1.24964    -0.22946    -2.16321
