   16
 
 C     5.14987     5.78117     0.45492
 C     4.31033     4.99635     1.19904
 N     3.94948     5.72638     2.30051
 C     4.53568     6.92102     2.25524
 N     5.26842     6.96489     1.13626
 H     3.95415     3.99782     1.02794
 H     3.31522     5.41142     3.06916
 H     4.43950     7.70636     2.98207
 H     5.65434     5.59510    -0.47473
 H     5.82276     7.75781     0.84704
 O     2.28727     4.99706     4.27770
 H     2.53718     4.54075     5.08635
 C     0.85261     5.08544     4.23001
 H     0.60036     5.59292     3.30519
 H     0.40177     4.09669     4.22710
 H     0.47289     5.66509     5.06695
