   13
 
 C     5.08243     5.69411     0.46782
 C     4.21965     4.99429     1.26760
 N     3.92812     5.79729     2.33842
 C     4.57738     6.95422     2.22201
 N     5.28271     6.90106     1.08660
 H     3.80364     4.01062     1.15548
 H     5.55308     5.43506    -0.46200
 H     4.54250     7.77810     2.91069
 H     5.87241     7.64673     0.74582
 H     3.30029     5.55462     3.12572
 O     2.27380     5.17665     4.42745
 H     2.50483     4.71698     5.23937
 H     1.32238     5.30390     4.47738
