    9
 
 C     0.00000     0.00000     0.00000
 H     1.09655     0.00000     0.00000
 H    -0.43429     1.01409     0.00000
 O    -0.55622    -0.59665     1.11864
 I    -0.61801    -0.94126    -1.89485
 H     1.12453    -1.62387     1.79233
 H    -0.02813    -2.58939     0.79732
 C     0.07428    -1.79589     1.54422
 H    -0.49641    -2.05536     2.44717
