   14
 
 H     0.00000     0.00000     0.00000
 C     1.11735     0.00000     0.00000
 C     1.60960     1.45260     0.00000
 C     1.60960    -0.72630     1.25799
 C     1.60960    -0.72630    -1.25799
 H     2.70359     1.50376     0.00000
 H     1.25418     1.99269    -0.88365
 H     1.25418     1.99269     0.88365
 H     2.70359    -0.75188     1.30229
 H     1.25418    -0.23108     2.16754
 H     1.25418    -1.76161     1.28389
 H     2.70359    -0.75188    -1.30229
 H     1.25418    -1.76161    -1.28389
 H     1.25418    -0.23108    -2.16754
