   12
 
 C     0.00000     0.00000     0.00000
 C     1.33500     0.00000     0.00000
 C     2.13720     1.26049     0.00000
 C     2.13720    -1.26049     0.00000
 H     1.50786     2.16024     0.00000
 H     2.78597     1.31949     0.88512
 H     2.78597     1.31949    -0.88512
 H     1.50786    -2.16024     0.00000
 H     2.78597    -1.31949    -0.88512
 H     2.78597    -1.31949     0.88512
 H    -0.59837     0.89472     0.00000
 H    -0.59837    -0.89472    -0.00000
