   13
 
 O    -0.00024    -0.03686    -0.01261
 C    -0.60245    -0.73321     0.76448
 C    -0.58177    -2.24605     0.65492
 C     0.02010    -2.82117     1.93696
 C    -2.01093    -2.73902     0.43020
 H    -1.18774    -0.29342     1.58042
 H     0.05328    -2.54467    -0.21725
 H     1.04314    -2.45810     2.09801
 H    -0.57019    -2.56220     2.82312
 H     0.07060    -3.91627     1.89028
 H    -2.67344    -2.48375     1.26460
 H    -2.44249    -2.31113    -0.48365
 H    -2.03625    -3.83006     0.31867
