   16
 
 C     0.00000     0.00000     0.00000
 O     1.43273     0.00000     0.00000
 N     1.93747     1.28339     0.00000
 O     3.11427     1.29218    -0.03284
 C    -0.48381    -0.27617    -1.43228
 H     0.23617    -0.98705    -1.91253
 C    -0.52213     1.01523    -2.25112
 C    -1.87035    -0.92301    -1.38325
 H    -0.41146     0.93589     0.41241
 H    -1.84963    -1.88931    -0.86716
 H    -2.59946    -0.28439    -0.87289
 H    -2.25344    -1.10570    -2.39472
 H    -0.22999    -0.83446     0.68931
 H     0.45458     1.51479    -2.25468
 H    -1.25406     1.72794    -1.85586
 H    -0.78941     0.81588    -3.29497
