   13
 
 C     1.12720     0.00000     0.00000
 C     1.14082     1.45157     0.00000
 C     1.14082    -0.72578     1.25710
 C     1.14082    -0.72578    -1.25710
 H     2.18498     1.86298     0.00000
 H     0.67563     1.92811    -0.89095
 H     0.67563     1.92811     0.89095
 H     2.18498    -0.93149     1.61339
 H     0.67563    -0.19247     2.11527
 H     0.67563    -1.73564     1.22432
 H     2.18498    -0.93149    -1.61339
 H     0.67563    -1.73564    -1.22432
 H     0.67563    -0.19247    -2.11527
