   14
 
 C     0.00000     0.00000     0.00000
 C     1.40249     0.00000     0.00000
 C     2.07668     1.21813     0.00000
 C     1.36923     2.41828    -0.00003
 C    -0.02631     2.40759     0.00021
 C    -0.72209     1.20457     0.00043
 N    -0.75040    -1.17489    -0.00001
 O    -0.59104    -3.55048     0.00496
 H    -0.57600     3.34877     0.00039
 H    -1.81136     1.18402     0.00083
 C    -0.51560    -2.38294     0.00288
 H     1.90439     3.36538    -0.00029
 H     3.16670     1.22956    -0.00008
 H     1.95946    -0.93232     0.00005
