   21
 
 C     0.00000     0.00000     0.00000
 C     1.37053     0.00000     0.00000
 C     2.08512     1.22519     0.00000
 C     1.41467     2.42092    -0.00028
 C    -0.00760     2.44799    -0.00022
 C    -0.71902     1.22740     0.00036
 C    -2.13976     1.24869     0.00113
 C    -2.80717     2.44987     0.00113
 C    -2.09566     3.67927     0.00037
 C    -0.72638     3.67645    -0.00028
 C    -4.27495     2.52242     0.00206
 O    -4.97375     3.50381     0.00219
 O    -4.84017     1.28306     0.00306
 H    -0.55945    -0.93498     0.00020
 H     1.92995    -0.93396     0.00013
 H     3.17426     1.19657     0.00009
 H     1.95630     3.36529    -0.00056
 H    -2.68561     0.30080     0.00168
 H    -2.66334     4.61420     0.00034
 H    -0.16617     4.61035    -0.00083
 H    -5.82888     1.30840     0.00376
