   25
 
 C     0.06142     0.15021    -0.01359
 C     1.10760    -0.97148    -0.17266
 N     1.92023    -0.85491    -1.40268
 C     1.14737    -1.13430    -2.63436
 C     2.02547    -0.83390    -3.86158
 C     1.26810    -1.16613    -5.15205
 C     2.11465    -0.83113    -6.38011
 C     2.07263    -0.95212     1.02468
 H     0.53296     1.13625     0.03154
 H    -0.64883     0.15873    -0.84579
 H    -0.51426     0.01884     0.90798
 H     0.58423    -1.96214    -0.20603
 H     2.38394     0.04864    -1.45385
 H     0.87049    -2.21200    -2.61864
 H     0.20115    -0.55533    -2.69291
 H     2.33513     0.22664    -3.86230
 H     2.96143    -1.42285    -3.79999
 H     0.99362    -2.23808    -5.16434
 H     0.31425    -0.60644    -5.18883
 H     2.37450     0.23275    -6.41058
 H     3.05176    -1.39943    -6.38713
 H     1.57947    -1.06611    -7.30647
 H     2.84960    -1.71891     0.90226
 H     2.58145     0.01132     1.12261
 H     1.54219    -1.15236     1.95977
