   17
 
 C     0.00917    -0.01640     0.01312
 C     1.31643    -0.69959     0.23486
 O     1.99093    -0.78516    -0.93375
 C     3.28092    -1.42721    -0.92451
 C     3.06812    -2.93521    -0.96333
 C     3.94078    -0.88948    -2.19080
 O     1.75110    -1.12297     1.27556
 H    -0.08750     0.85607     0.67827
 H    -0.11647     0.33125    -1.02374
 H    -0.82415    -0.69904     0.24283
 H     3.82575    -1.11312    -0.00550
 H     2.57796    -3.28549    -0.04357
 H     2.43187    -3.22988    -1.80612
 H     4.01939    -3.47005    -1.05546
 H     3.35059    -1.13526    -3.08295
 H     4.02740     0.20378    -2.15689
 H     4.94371    -1.30847    -2.32177
