   25
 
 C    -0.08870     0.10969    -0.06984
 C     0.80650     0.12593     1.15977
 C    -0.51716     1.51744    -0.46396
 S     0.81578    -0.59832    -1.53314
 S     0.86940    -2.58619    -1.37021
 C    -0.65424    -3.36140    -2.14268
 C    -0.75789    -2.97241    -3.61221
 C    -1.91034    -2.94939    -1.38293
 C    -0.41431    -4.86473    -1.99983
 H    -0.98983    -0.51551     0.12863
 H     1.10006    -0.88294     1.47927
 H     1.73227     0.69424     0.99717
 H     0.29277     0.59018     2.01224
 H     0.33535     2.17252    -0.68967
 H    -1.18044     1.52642    -1.33924
 H    -1.06840     1.99539     0.35834
 H     0.15650    -3.20637    -4.17391
 H    -0.95943    -1.90299    -3.75572
 H    -1.57699    -3.51399    -4.10386
 H    -1.84112    -3.16657    -0.30932
 H    -2.14370    -1.88392    -1.49636
 H    -2.78636    -3.49828    -1.75691
 H    -0.33387    -5.18414    -0.95240
 H     0.49463    -5.19916    -2.51728
 H    -1.24811    -5.43053    -2.43702
