   17
 
 C     0.00000     0.00000     0.00000
 C     1.40814     0.00000     0.00000
 C     2.08432     1.21597     0.00000
 C     1.39802     2.42864     0.00046
 C     0.00244     2.42022     0.00108
 C    -0.70137     1.22419     0.00080
 N    -0.68986    -1.19782    -0.00042
 C     3.55880     1.16818    -0.00065
 O     4.10728     2.41353     0.00000
 O     4.27099     0.19599    -0.00174
 H    -0.54038     3.36580     0.00186
 H    -1.78681     1.22801     0.00145
 H    -1.68145    -1.21773    -0.00076
 H    -0.20725    -2.06607    -0.00164
 H     1.96473    -0.93647    -0.00028
 H     5.09689     2.39842    -0.00050
 H     1.94295     3.37212     0.00038
