   16
 
 C     0.00000     0.00000     0.00000
 C     1.39399     0.00000     0.00000
 C     2.05607     1.23132     0.00000
 C     1.32256     2.41971    -0.00008
 C    -0.07338     2.38754    -0.00031
 C    -0.75588     1.17786    -0.00023
 C     3.54699     1.25945    -0.00032
 O    -0.72377    -1.15007     0.00027
 H     1.95371    -0.92691     0.00005
 H     1.83711     3.37604    -0.00003
 H    -0.63324     3.32312    -0.00061
 H    -1.84025     1.12764    -0.00057
 H     3.95576     0.74604     0.88295
 H     3.95489     0.75339    -0.88822
 H     3.95411     2.27941     0.00384
 H    -0.14965    -1.95271     0.00042
