   14
 
 C     0.00000     0.00000     0.00000
 C     1.39277     0.00000     0.00000
 C     2.08744     1.21594     0.00000
 C     1.39560     2.43018    -0.00066
 C    -0.00192     2.41561    -0.00081
 C    -0.70175     1.20295    -0.00064
 C     3.50921     1.21387     0.00099
 N     4.66629     1.20949     0.00188
 C    -0.72032     3.64234    -0.00203
 N    -1.30801     4.63903    -0.00301
 H     1.94383    -0.94285     0.00008
 H     1.93919     3.37834    -0.00108
 H    -1.79390     1.20310    -0.00035
 H    -0.54328    -0.94646     0.00066
