   16
 
 C     0.00013     0.00499    -0.02178
 C     2.78063    -0.01281    -0.05689
 C     0.72353     1.20152     0.02783
 C     0.68634    -1.20495    -0.08965
 C     2.11876     1.21390     0.01065
 C     2.07895    -1.22230    -0.10734
 H    -1.09714     0.02450    -0.00695
 N    -0.00204     2.46580     0.10038
 H     0.13021    -2.14398    -0.12938
 H     2.68001     2.16278     0.04895
 H     2.62393    -2.17321    -0.15972
 N     4.23986    -0.03738    -0.07449
 O     4.83074     1.02694    -0.03565
 O     4.78746    -1.12571    -0.12749
 O    -1.22022     2.41927     0.12924
 O     0.64607     3.49646     0.12773
