   23
 
 C     0.00000     0.00000     0.00000
 C     1.39403     0.00000     0.00000
 C     2.09227     1.20502     0.00000
 C     1.39328     2.41478    -0.00493
 C    -0.00389     2.41431    -0.00621
 C    -0.69764     1.20680    -0.00073
 C     2.12659     3.68802    -0.00766
 C     1.90791     4.61726    -1.02708
 C     2.60276     5.82811    -1.03466
 C     3.51466     6.12803    -0.03042
 C     3.71486     5.18233     0.98156
 C     3.03933     3.96293     1.01368
 O     4.61721     5.53677     1.93349
 H    -0.54372    -0.94219     0.00156
 H     1.93810    -0.94242    -0.00031
 H     3.18099     1.20766    -0.00394
 H    -0.54640     3.35840    -0.00575
 H    -1.78589     1.20654     0.00172
 H     1.19968     4.39239    -1.82071
 H     2.42712     6.54441    -1.83741
 H     3.20645     3.24659     1.81016
 H     4.72053     4.84229     2.62766
 H     4.06527     7.06392    -0.01458
