   15
 
 C     0.00000     0.00000     0.00000
 C     1.39736     0.00000     0.00000
 C     2.06790     1.22113     0.00000
 C     1.35892     2.42007     0.00147
 C    -0.03849     2.38285     0.00151
 C    -0.74551     1.18482    -0.00091
 O    -0.73674    -1.13736     0.00077
 N    -0.78097     3.64174     0.00045
 O    -0.15454     4.67661     0.15955
 O    -1.98916     3.59781    -0.15671
 H     1.95292    -0.93350    -0.00004
 H     3.15915     1.23893    -0.00034
 H     1.88493     3.37842     0.00523
 H    -0.17484    -1.95176    -0.00128
 H    -1.83896     1.15284    -0.00586
