   10
 
 S     0.00000     0.00000     0.00000
 C     1.85645     0.00000     0.00000
 C    -0.18016     1.81548     0.00000
 O    -0.40831    -0.45764    -1.39698
 H     2.21502    -1.03249    -0.01153
 H    -1.24355     2.07998    -0.01246
 H     2.26594     0.48945    -0.88550
 H     2.24378     0.49296     0.88907
 H     0.26944     2.25869     0.88924
 H     0.26509     2.28187    -0.88416
