    9
 
 C     0.00000     0.00000     0.00000
 S     1.80200     0.00000     0.00000
 C     2.08079     1.78030     0.00000
 H    -0.31401    -1.05331    -0.00000
 H     3.16736     1.94587     0.00000
 H    -0.31354     0.49325    -0.92892
 H    -0.44686     0.50072     0.85983
 H     1.66725     2.27077     0.88785
 H     1.66761     2.27140    -0.88757
