   11
 
 C     0.00000     0.00000     0.00000
 S     1.83171     0.00000     0.00000
 C     2.22684     1.73488     0.00000
 O     2.28060    -0.57102     1.29463
 O     2.27507    -0.57111    -1.24908
 H    -0.37424    -1.02994     0.00261
 H    -0.40466     0.48380    -0.88937
 H    -0.40406     0.48738     0.88792
 H     3.31702     1.88668     0.00325
 H     1.84498     2.25004     0.88815
 H     1.84687     2.25142    -0.88778
