   10
 
 C     0.00000     0.00000     0.00000
 S     1.81000     0.00000     0.00000
 S     2.26152     1.98735     0.00000
 C     2.26827     2.57659     1.71139
 H    -0.42245     0.50748    -0.87618
 H    -0.34526    -1.04435    -0.02956
 H    -0.42637     0.45853     0.89873
 H     2.99693     2.04785     2.33749
 H     2.55184     3.63893     1.69586
 H     1.28642     2.50028     2.19047
