   17
 
 P     0.00000     0.00000     0.00000
 O     1.49452     0.00000     0.00000
 O    -0.64487     1.50514     0.00000
 O    -0.80931    -0.64676     1.22357
 O    -0.80129    -0.66498    -1.21850
 C    -0.13919     2.48501     0.95089
 C    -0.45546    -0.33147    -2.58005
 C    -0.50918    -1.99145     1.65783
 H    -0.49402     2.28742     1.96996
 H    -0.63249     3.38380     0.54422
 H     0.95015     2.62171     0.93870
 H    -1.09390    -1.06639    -3.10269
 H    -0.75852     0.68850    -2.85449
 H     0.59756    -0.50221    -2.84509
 H    -1.31013    -2.10844     2.41035
 H     0.47503    -2.07219     2.14159
 H    -0.61921    -2.76250     0.88395
