   60
 
 C     0.00000     0.00000     0.00000
 C     1.53416     0.00000     0.00000
 C     2.15177     1.45100     0.00000
 C     1.47041     2.45405     0.97757
 C     2.03320     3.92259     0.96323
 C     1.51213     4.67340     2.20910
 C     2.14048     1.97394    -1.41822
 C     1.47040     1.93321     2.39878
 C     2.01886    -0.80761     1.21789
 C     2.01849    -0.76843    -1.24964
 C     1.50525     4.70294    -0.25752
 C     3.56533     3.99190     0.94447
 C     3.48834     2.04457    -2.08032
 C     3.47203     2.91215    -3.34605
 C     2.28200     2.52108    -4.22807
 C     0.97123     2.79317    -3.47706
 C     1.01473     2.30197    -2.06655
 C     2.78710     1.69033     3.07667
 C     2.65225     0.82266     4.33658
 C     1.50700     1.34742     5.20809
 C     0.18323     1.24684     4.43738
 C     0.30400     1.75529     3.03778
 H    -0.40590     0.52273    -0.87158
 H    -0.39040    -1.02341    -0.02661
 H    -0.40400     0.47387     0.90067
 H     3.21093     1.33317     0.33838
 H     0.40462     2.54343     0.63718
 H     1.77698     5.73427     2.17005
 H     0.42221     4.60313     2.28414
 H     1.92798     4.27438     3.13904
 H     3.10310    -0.74884     1.34060
 H     1.75664    -1.86598     1.11646
 H     1.54905    -0.45825     2.14449
 H     3.10993    -0.79827    -1.30095
 H     1.65996    -1.80263    -1.23640
 H     1.64626    -0.31603    -2.17543
 H     2.01479     4.40741    -1.18094
 H     0.43329     4.54761    -0.40573
 H     1.67022     5.77866    -0.13918
 H     4.01640     3.51127     1.81529
 H     3.97660     3.51256     0.04939
 H     3.90555     5.03385     0.93695
 H     4.25242     2.43345    -1.37649
 H     3.81737     1.01568    -2.33742
 H     3.40346     3.98150    -3.07160
 H     4.41969     2.79698    -3.90061
 H     2.30290     3.07919    -5.17996
 H     2.34675     1.45027    -4.49640
 H     0.75853     3.88342    -3.47478
 H     0.12513     2.32423    -4.01799
 H     0.04228     2.25255    -1.58120
 H     3.50937     1.22436     2.37755
 H     3.23118     2.66991     3.36048
 H     2.46224    -0.23077     4.05827
 H     3.60113     0.82307     4.90129
 H     1.44537     0.78074     6.15313
 H     1.69887     2.39929     5.49048
 H    -0.15681     0.18973     4.41001
 H    -0.60779     1.80229     4.97969
 H    -0.64867     1.96437     2.55706
