   19
 
 O     0.00000     0.00000     0.00000
 C     1.20538     0.00000     0.00000
 C     1.96284     1.29798     0.00000
 C     1.99580    -1.31303    -0.00860
 C     3.00738    -1.28962    -1.15929
 C     2.70761    -1.45173     1.34182
 C     1.01877    -2.47692    -0.20384
 H     2.96881     1.21244     0.42211
 H     2.06067     1.67603    -1.02831
 H     1.41904     2.06785     0.56733
 H     2.51161    -1.13264    -2.12441
 H     3.75479    -0.49938    -1.03423
 H     3.54828    -2.24116    -1.22395
 H     3.46798    -0.67877     1.49176
 H     1.99618    -1.38938     2.17481
 H     3.21263    -2.42201     1.41943
 H     0.26739    -2.50188     0.59680
 H     0.46509    -2.37868    -1.14590
 H     1.53517    -3.44103    -0.21299
