   17
 
 C    -0.07945     0.00822    -0.03196
 C     1.07192     0.17745    -0.95918
 O     1.05411     0.33790    -2.14863
 O     2.23507     0.16000    -0.24112
 C     3.45830     0.18146    -0.94294
 O     3.70870    -1.10817    -1.45546
 C     4.20900    -2.06379    -0.61634
 O     4.56582    -1.81515     0.50247
 C     4.25178    -3.36676    -1.33373
 H    -0.60960    -0.93497    -0.24198
 H     0.22621    -0.01009     1.02722
 H    -0.80556     0.82695    -0.16096
 H     3.41165     0.81057    -1.85116
 H     4.19217     0.48008    -0.17109
 H     4.01470    -3.26765    -2.40582
 H     3.52386    -4.07087    -0.89997
 H     5.24870    -3.82777    -1.24587
