   21
 
 O     0.00000     0.00000     0.00000
 P     1.57670     0.00000     0.00000
 O     2.09488     1.50515     0.00000
 P     2.43461     2.79390     0.82352
 O     1.34148     3.19907     1.90231
 P    -0.09716     3.15302     2.51098
 O    -0.56211     1.62449     2.64082
 O    -0.09974     3.98004     3.70406
 O    -1.04546     3.52237     1.28406
 O     3.56148     2.32512     1.85415
 O     2.77668     3.85734    -0.09177
 O     1.89577    -0.65835     1.41967
 O     2.14279    -0.60314    -1.19011
 C     0.03531     0.72372     3.58988
 H    -0.33894     0.53892     0.81790
 H    -1.96078     3.78527     1.67640
 H     3.47852     2.87624     2.71610
 H     2.89746    -0.58531     1.60429
 H     1.12915     0.63498     3.52770
 H    -0.27155     0.95322     4.61897
 H    -0.42171    -0.22718     3.26253
