   20
 
 C     0.00000     0.00000     0.00000
 S     1.82022     0.00000     0.00000
 C     2.18829     1.80216     0.00000
 C     3.69528     2.00201     0.11285
 C     4.01604     3.51375     0.13590
 C     5.53407     3.67094     0.08708
 O     6.26341     4.00517     0.98183
 O     6.00643     3.39250    -1.14952
 N     3.45768     4.14588     1.33541
 H    -0.34032    -1.04352    -0.00481
 H    -0.41140     0.49290    -0.88585
 H    -0.41044     0.48423     0.89167
 H     1.66792     2.29785     0.84420
 H     1.79415     2.26283    -0.92308
 H     4.22597     1.53216    -0.74400
 H     4.09530     1.51659     1.02716
 H     3.56617     4.01405    -0.76624
 H     6.98917     3.47584    -1.23470
 H     3.70111     5.12294     1.40617
 H     3.73970     3.67803     2.18493
