   20
 
 C     0.00000     0.00000     0.00000
 C     1.52894     0.00000     0.00000
 C     2.06488     1.43611     0.00000
 C     3.59613     1.44625    -0.00012
 C     4.09847     2.85725    -0.00013
 O     5.45996     2.84495     0.00729
 C     6.09856     4.11618     0.00598
 O     3.46614     3.87981    -0.00568
 H    -0.40197     0.50709    -0.88462
 H    -0.40212     0.51051     0.88260
 H    -0.39740    -1.02079     0.00201
 H     1.90569    -0.55017     0.88293
 H     1.90542    -0.54930    -0.88368
 H     1.67966     1.99057    -0.87918
 H     1.68039     1.99063     0.87945
 H     3.99550     0.90029     0.88124
 H     3.99479     0.90269    -0.88348
 H     5.83907     4.66830    -0.90385
 H     5.80752     4.68876     0.89337
 H     7.16413     3.86041     0.02760
