   10
 
 O     0.00000     0.00000     0.00000
 P     1.60819     0.00000     0.00000
 O     1.98167     1.56424     0.00000
 O     2.18189    -0.72938     1.13315
 C     1.93495    -0.40886    -1.71350
 H    -0.34701    -0.01152     0.95354
 H     2.06504     1.90158     0.95353
 H     1.38034     0.27873    -2.40661
 H     3.03199    -0.31824    -1.93457
 H     1.61159    -1.46164    -1.93235
