   23
 
 H     0.00000     0.00000     0.00000
 C     1.09532     0.00000     0.00000
 O     1.58058     1.33844     0.00000
 C     1.24603     2.09740    -1.07916
 C     1.83498     3.46570    -0.91909
 C     1.47621     4.33707    -2.12543
 C     2.07734     5.73885    -1.97802
 C     1.71362     6.60938    -3.18868
 O     0.57877     1.66912    -1.98316
 H     1.94422     8.51925    -2.15635
 H     3.40543     7.97285    -2.98570
 H     2.05831     8.63562    -3.91495
 H     1.47701    -0.54109    -0.87239
 H     1.49863    -0.40922     0.93304
 H     1.47127     3.92562     0.02478
 H     2.93722     3.39023    -0.79873
 H     0.37493     4.39766    -2.23697
 H     1.83361     3.85924    -3.05975
 H     1.71426     6.21613    -1.04873
 H     3.17696     5.67554    -1.87708
 H     2.07328     6.13278    -4.12049
 H     0.61366     6.67785    -3.28979
 C     2.31268     8.00910    -3.05343
