   10
 
 C     0.00000     0.00000     0.00000
 C     1.50261     0.00000     0.00000
 C     0.57329     1.18236     0.00000
 C     0.55068     2.62685     0.00012
 H    -0.82249    -0.63583    -0.00001
 H     2.05914    -0.27287    -0.89081
 H     2.05934    -0.27298     0.89064
 H     1.56488     3.06048     0.00264
 H     0.02719     3.02545    -0.88758
 H     0.02262     3.02546     0.88509
