   16
 
 P     0.00000     0.00000     0.00000
 O     1.48463     0.00000     0.00000
 C    -0.33187     2.67176     0.00000
 C    -0.20404    -0.84878    -2.56215
 O    -0.54715     1.42584    -0.65128
 O    -0.83957    -0.39730     1.15783
 O    -0.64449    -0.90850    -1.20852
 H    -0.80080     2.73371     0.99120
 H    -0.84461     3.36089    -0.68942
 H     0.72910     2.94646     0.07095
 C     0.70443    -2.05690    -2.85500
 H    -1.16578    -0.94016    -3.11094
 H     0.28353     0.09140    -2.87626
 H     0.31956    -2.94854    -2.34758
 H     0.77431    -2.25483    -3.92275
 H     1.71228    -1.88316    -2.45835
