   12
 
 C     0.00000     0.00000     0.00000
 S     1.82223     0.00000     0.00000
 C     2.20088     1.80311     0.00000
 C     3.70868     1.98830     0.00180
 H     3.96846     3.05622     0.00326
 H     4.18679     1.54632    -0.88326
 H     4.18514     1.54432     0.88678
 H     1.74541     2.27917     0.88618
 H     1.74742     2.27854    -0.88756
 H    -0.33718    -1.04421     0.00251
 H    -0.41040     0.48543    -0.89001
 H    -0.41069     0.48983     0.88747
