   12
 
 C     0.00000     0.00000     0.00000
 O     1.41386     0.00000     0.00000
 C     1.96802     1.31278     0.00000
 C     3.47527     1.08316    -0.00167
 H    -0.39437     0.48301     0.89929
 H    -0.39350     0.47476    -0.90404
 H    -0.24582    -1.07008     0.00510
 H     1.62890     1.85255    -0.90108
 H     1.63113     1.85159     0.90261
 H     3.78756     0.51191     0.88226
 H     3.78308     0.50042    -0.87979
 H     4.02368     2.02987    -0.00875
