   11
 
 P     0.00000     0.00000     0.00000
 O     1.45114     0.00000     0.00000
 C    -0.29889     2.63961     0.00000
 O    -0.61512    -0.45221     1.39308
 O    -0.77901    -0.97855    -1.00076
 O    -0.78155     1.34621    -0.40269
 H    -0.95922     3.28407    -0.60589
 H    -0.47255     2.82749     1.06850
 H     0.74972     2.84133    -0.25918
 H    -0.44250    -0.80091    -1.95259
 H    -1.64173    -0.46507     1.31267
