   20
 
 O     0.00000     0.00000     0.00000
 P     1.46143     0.00000     0.00000
 O     2.10612     1.43324     0.00000
 P     3.22373     2.46938    -0.57182
 O     4.60288     1.59995    -0.31826
 P     5.69331     1.04102     0.64145
 O     5.03523     0.33701     1.93880
 O     6.56596     0.02944     0.04180
 O     6.56210     2.27161     1.21365
 O     3.35609     2.49566    -2.03008
 O     2.98615     3.56319     0.37461
 O     1.99175    -0.69171     1.34417
 O     2.04316    -0.92527    -1.17395
 C     4.35836     1.05060     2.97983
 H     5.99205     3.11195     1.22861
 H     2.99946    -0.63213    -1.38587
 H     2.99014    -0.50492     1.46335
 H     3.50895     1.66649     2.64539
 H     3.97492     0.20986     3.58100
 H     5.04574     1.65395     3.58383
