   13
 
 O     0.27291    -0.08184     0.28647
 C     1.08269     0.12963    -0.59053
 C     1.84632     1.40548    -0.73477
 C     1.08496     2.48942    -1.40616
 C     3.07951     1.52450    -0.24653
 N     1.33649    -0.83864    -1.54598
 H     0.78476     2.20840    -2.42642
 H     0.15792     2.72009    -0.85117
 H     1.65805     3.42435    -1.47950
 H     3.60634     0.72473     0.25383
 H     3.65433     2.43737    -0.29544
 H     1.99789    -0.71115    -2.27717
 H     0.86012    -1.71728    -1.50877
