   20
 
 C     0.00240     0.01097    -0.00038
 C     1.53262    -0.00618     0.06048
 C    -0.53032     1.44551     0.06438
 C    -0.49133    -0.68591    -1.27073
 C    -0.53295    -0.75516     1.20167
 O    -0.12496    -0.15702     2.35260
 C    -0.55273    -0.77009     3.56340
 O    -1.21612    -1.74459     1.20571
 H     1.90361     0.44925     0.98811
 H     1.92901    -1.02744     0.01430
 H     1.96632     0.55304    -0.77673
 H    -0.20402     1.95519     0.98098
 H    -1.62619     1.47251     0.04637
 H    -0.17245     2.03694    -0.78639
 H    -0.14945    -1.72844    -1.31694
 H    -1.58789    -0.71489    -1.31409
 H    -0.13228    -0.17442    -2.16984
 H    -1.64618    -0.76931     3.62219
 H    -0.17020    -1.79484     3.62481
 H    -0.10921    -0.13030     4.33489
