   20
 
 H     0.00000     0.00000     0.00000
 H     2.54135     0.00000     0.00000
 C     1.23446     2.63859     0.00000
 S     1.25560     2.16973     1.72500
 C     1.27114     0.33599     1.76762
 C     0.02436    -0.21341     1.07412
 H     3.44949     0.23687     1.50753
 O     2.51550     2.62578     2.27842
 O    -0.00111     2.60350     2.30281
 H     2.61213    -1.28027     1.20089
 H     0.38569     0.26670     3.77861
 H     2.13993     2.32135    -0.52633
 H     2.15798     0.27543     3.77748
 H     1.27843    -1.18562     3.32996
 H     0.36273     2.24000    -0.52745
 H     1.18325     3.73242    -0.09800
 C     2.52983    -0.19140     1.07794
 C     1.27327    -0.09274     3.23672
 H    -0.90432     0.17943     1.51801
 H    -0.02633    -1.30620     1.17587
