   23
 
 C     0.00000     0.00000     0.00000
 C     1.53455     0.00000     0.00000
 C     2.05731     1.44091     0.00000
 C     2.04643    -0.73051    -1.25291
 C     2.06290    -0.75812     1.24458
 C     1.42896    -0.26057     2.50567
 O     1.42877     0.85085     2.96759
 O     0.81381    -1.29929     3.13578
 C     0.15740    -0.99233     4.36057
 H    -0.40196     0.59276     0.83095
 H    -0.40484    -1.01340     0.09073
 H    -0.39691     0.43310    -0.92452
 H     1.77072     1.97170     0.91984
 H     3.14920     1.47734    -0.06512
 H     1.65525     2.01171    -0.84302
 H     1.65314    -1.75040    -1.31482
 H     3.13940    -0.79115    -1.26581
 H     1.73834    -0.20733    -2.16507
 H     1.88657    -1.84877     1.12374
 H     3.16361    -0.63459     1.32286
 H     0.87709    -0.60157     5.08745
 H    -0.64184    -0.26458     4.18650
 H    -0.24471    -1.96181     4.67497
