   15
 
 C     0.00000     0.00000     0.00000
 S     1.82230     0.00000     0.00000
 C     2.19978     1.80116     0.00000
 C     3.71468     1.99550     0.00544
 C     4.04816     3.48992     0.00429
 H     5.13249     3.65115     0.00964
 H     3.63753     3.99505     0.88566
 H     3.64684     3.99143    -0.88339
 H     4.18050     1.51162    -0.87688
 H     4.17391     1.51419     0.89261
 H     1.74298     2.27895     0.88407
 H     1.74932     2.27726    -0.88826
 H    -0.33725    -1.04418     0.00155
 H    -0.41024     0.48657    -0.88954
 H    -0.41050     0.48934     0.88791
