   12
 
 C     0.68736    -0.17771     0.32287
 N    -0.73502     0.20119     0.05569
 H    -1.38012    -0.45257     0.49618
 H    -0.94534     1.12873     0.42016
 H    -0.91469     0.19914    -0.96899
 H     0.85666    -1.16407    -0.09148
 H     1.32695     0.54587    -0.16773
 H     0.85968    -0.17683     1.39247
 O    -0.68839    -0.00683    -2.67121
 C    -1.15154     0.10857    -3.79372
 H    -0.57091    -0.19291    -4.66988
 H    -2.15431     0.51429    -3.96247
