   26
 
 C     0.00000     0.00000     0.00000
 C     1.52886     0.00000     0.00000
 C     2.07197     1.43350     0.00000
 C     3.61091     1.42395     0.00302
 N     4.28656     2.70650     0.00092
 C     3.67578     3.83046    -0.00251
 C     4.51034     5.09521    -0.00370
 C     4.18962     5.89804    -1.26792
 C     4.18908     5.89883     1.26016
 H    -0.40227     0.50949     0.88272
 H    -0.40206     0.50573    -0.88497
 H    -0.39613    -1.02178     0.00207
 H     1.90524    -0.55126    -0.88293
 H     1.90523    -0.55048     0.88352
 H     1.69422     1.97819    -0.88517
 H     1.69183     1.97916     0.88371
 H     3.99026     0.86252    -0.88633
 H     3.98721     0.86679     0.89619
 H     2.59316     3.99518    -0.00427
 H     5.59941     4.82995    -0.00381
 H     3.13669     6.19599    -1.30728
 H     4.40561     5.31389    -2.17084
 H     4.79284     6.81168    -1.31655
 H     4.40891     5.31667     2.16336
 H     3.13535     6.19356     1.30082
 H     4.78938     6.81455     1.30606
