   35
 
 C     0.00000     0.00000     0.00000
 C     1.39062     0.00000     0.00000
 C     2.08652     1.22028     0.00000
 N     3.48754     1.29542     0.10490
 C     4.28106     0.10517    -0.21155
 C     4.27675    -0.22870    -1.71785
 C     4.68221    -1.69474    -1.97019
 O     3.65622    -2.42662    -1.30416
 C     3.67441    -3.78239    -1.41690
 C     2.59321    -4.38891    -0.75697
 C     2.49381    -5.77220    -0.78374
 C    -0.71240     1.19707    -0.00808
 C    -0.02197     2.40920    -0.01606
 C     1.36608     2.43215    -0.01721
 C     4.63870    -4.52691    -2.09188
 C     4.51313    -5.91702    -2.10331
 C     3.45076    -6.53919    -1.45521
 O     5.15298     0.61638    -2.42037
 H    -0.53536    -0.94909     0.00171
 H     1.92563    -0.94636    -0.00173
 H     3.89915     2.15220    -0.25782
 H     5.32044     0.28473     0.14602
 H     3.90431    -0.76304     0.38192
 H     3.28859    -0.00159    -2.18749
 H     4.67874    -1.92490    -3.05048
 H     5.66163    -1.94611    -1.53370
 H     1.85830    -3.77453    -0.24338
 H     1.66349    -6.26619    -0.27935
 H    -1.79744     1.18799    -0.00975
 H    -0.57654     3.34694    -0.02363
 H     1.89499     3.38003    -0.02156
 H     5.47081    -4.05654    -2.60188
 H     5.25663    -6.51750    -2.62682
 H     3.36205    -7.62213    -1.47008
 H     6.06754     0.55739    -2.07973
