   16
 
 C     0.00000     0.00000     0.00000
 C     1.52870     0.00000     0.00000
 C     2.06985     1.43366     0.00000
 C     3.59745     1.42572     0.02060
 O     4.07840     2.75913    -0.18439
 N     4.14443     3.45576     1.00662
 O     4.51374     4.56142     0.84653
 H    -0.40229     0.50871     0.88345
 H    -0.40188     0.50784    -0.88429
 H    -0.39731    -1.02116     0.00004
 H     1.90409    -0.55093     0.88362
 H     1.90390    -0.55058    -0.88397
 H     1.70542     1.98407    -0.88915
 H     1.68047     1.99259     0.87285
 H     4.00346     0.99410     0.95105
 H     4.03235     0.89860    -0.85005
