   16
 
 N     0.00000     0.00000     0.00000
 C     1.48224     0.00000     0.00000
 C     1.98506     1.45435     0.00000
 C     3.51229     1.49305     0.12335
 C     4.01813     2.93576     0.10873
 H    -0.37417     0.50224    -0.78714
 H    -0.37132    -0.93498    -0.00458
 H     1.81674    -0.51711     0.92691
 H     1.91252    -0.55549    -0.85927
 H     1.65851     1.97478    -0.91773
 H     1.51468     2.00503     0.83899
 H     3.83070     0.99099     1.05670
 H     3.97711     0.92207    -0.70236
 H     3.75216     3.44421    -0.82467
 H     3.59156     3.51701     0.93423
 H     5.10859     2.97544     0.20671
