   14
 
 C     0.00000     0.00000     0.00000
 C     1.52833     0.00000     0.00000
 C     2.07922     1.43284     0.00000
 C     3.60756     1.43249     0.00023
 H     4.00400     2.45397     0.00155
 H     4.00834     0.92472    -0.88403
 H     4.00826     0.92244     0.88322
 H     1.69888     1.98172    -0.88210
 H     1.69933     1.98181     0.88220
 H     1.90876    -0.54899    -0.88199
 H     1.90806    -0.54899     0.88225
 H    -0.40105     0.50991     0.88291
 H    -0.40087     0.50750    -0.88436
 H    -0.39605    -1.02161     0.00134
