   51
 
 C     0.00000     0.00000     0.00000
 C     1.54169     0.00000     0.00000
 C     1.99753     1.47092     0.00000
 C     0.74348     2.31608     0.30910
 C    -0.44091     1.46107    -0.18621
 C     0.76910     3.68913    -0.37191
 C     1.83464     4.59970     0.25168
 C     1.85775     5.96426    -0.44897
 C     2.93266     6.86997     0.16592
 C     2.95876     8.23352    -0.53647
 C     4.03949     9.13660     0.07193
 C     4.06998    10.49728    -0.63602
 C     5.15141    11.40038    -0.02873
 C     5.18767    12.75757    -0.74314
 C     6.26930    13.66084    -0.13691
 C     6.31057    15.01707    -0.85429
 H    -0.40192    -0.64340    -0.79748
 H    -0.38710    -0.40574     0.94932
 H     1.93643    -0.53176    -0.88017
 H     1.93134    -0.53333     0.88177
 H     2.42089     1.74488    -0.98074
 H     2.79156     1.64955     0.74009
 H     0.65905     2.45381     1.41088
 H    -1.36226     1.68649     0.37006
 H    -0.65738     1.66749    -1.24773
 H    -0.22644     4.16453    -0.28602
 H     0.95507     3.57431    -1.45604
 H     1.63688     4.73038     1.33172
 H     2.82909     4.12089     0.18062
 H     0.86590     6.44680    -0.37109
 H     2.04783     5.83149    -1.53025
 H     2.74214     7.00417     1.24687
 H     3.92407     6.38590     0.08950
 H     1.96916     8.72029    -0.45526
 H     3.14332     8.09861    -1.61845
 H     3.85217     9.27602     1.15281
 H     5.02847     8.64780    -0.00490
 H     3.08126    10.98651    -0.55890
 H     4.25682    10.35745    -1.71698
 H     4.96124    11.54576     1.05087
 H     6.13937    10.90873    -0.10016
 H     4.19987    13.24947    -0.67153
 H     5.37747    12.61198    -1.82280
 H     6.07831    13.81020     0.94188
 H     7.25688    13.16814    -0.20456
 H     5.32289    15.51077    -0.78636
 H     6.50199    14.86823    -1.93367
 C     7.38796    15.91948    -0.25241
 H     8.38219    15.46690    -0.33680
 H     7.20192    16.11117     0.81018
 H     7.42306    16.88911    -0.76100
