   23
 
 C     0.00000     0.00000     0.00000
 C     1.52856     0.00000     0.00000
 C     2.07626     1.43416     0.00000
 C     3.61003     1.42951     0.00270
 C     4.15667     2.86265     0.00187
 C     5.69128     2.85869     0.00684
 C     6.23972     4.28555     0.00515
 H     7.33529     4.28935     0.01034
 H     5.90401     4.84474     0.88553
 H     5.91247     4.83921    -0.88188
 H     6.06985     2.30655    -0.87397
 H     6.06426     2.31057     0.89254
 H     3.77686     3.41367     0.88228
 H     3.78239     3.41036    -0.88295
 H     3.98780     0.87913    -0.87909
 H     3.98480     0.88100     0.88695
 H     1.69689     1.98272     0.88203
 H     1.69822     1.98196    -0.88313
 H     1.90620    -0.54805     0.88371
 H     1.90800    -0.54854    -0.88269
 H    -0.39656    -1.02129     0.00144
 H    -0.40046     0.50771    -0.88448
 H    -0.40064     0.51028     0.88294
