   21
 
 C     0.00000     0.00000     0.00000
 C     1.52850     0.00000     0.00000
 C     2.07671     1.43331     0.00000
 C     3.61074     1.42765     0.00161
 C     4.15364     2.86075     0.00408
 C     5.69209     2.85349     0.00625
 C     6.20695     4.20311     0.01292
 N     6.62194     5.28264     0.01844
 H    -0.40184     0.50920     0.88316
 H    -0.40164     0.50713    -0.88444
 H    -0.39638    -1.02160     0.00101
 H     1.90485    -0.55155     0.88227
 H     1.90473    -0.55027    -0.88317
 H     1.69466     1.98197     0.88136
 H     1.69764     1.98060    -0.88357
 H     3.98316     0.87385     0.88426
 H     3.98489     0.87721    -0.88245
 H     3.77377     3.41115     0.88698
 H     3.77724     3.41287    -0.87928
 H     6.06962     2.28802     0.89183
 H     6.07287     2.29655    -0.88309
