   15
 
 N     0.00000     0.00000     0.00000
 C     1.40744     0.00000     0.00000
 C     1.87840     1.44472     0.00000
 C     0.59708     2.29367     0.00123
 C    -0.54904     1.29675     0.00038
 C    -0.81223    -1.20877    -0.00147
 O     2.07530    -0.99776     0.00013
 O    -1.72839     1.52049     0.00011
 H     2.51693     1.63981    -0.88209
 H     2.51810     1.63968     0.88134
 H     0.52847     2.95951    -0.87956
 H     0.52862     2.95715     0.88390
 H    -1.46691    -1.23748     0.88928
 H    -1.45502    -1.24339    -0.90060
 H    -0.16567    -2.10725     0.00557
