   12
 
 C     0.00000     0.00000     0.00000
 C     1.50031     0.00000     0.00000
 O     2.16853     1.01610     0.00000
 N     2.16680    -1.21147     0.00112
 C     1.48662    -2.50121    -0.00370
 H     3.17543    -1.21133    -0.00053
 H    -0.37431     1.03800    -0.00329
 H    -0.41057    -0.49751    -0.88782
 H    -0.41032    -0.49166     0.89127
 H     0.86161    -2.62303    -0.90737
 H     0.83889    -2.61757     0.88453
 H     2.22283    -3.32365     0.00846
