   13
 
 C     0.00000     0.00000     0.00000
 C     1.39679     0.00000     0.00000
 C     1.82545     1.35376     0.00000
 C     0.68296     2.15787     0.00000
 N    -0.42066     1.32052     0.00004
 C    -1.80554     1.74729    -0.00153
 H    -0.68338    -0.82177     0.00010
 H     2.03084    -0.85886     0.00004
 H     2.83896     1.68878     0.00006
 H     0.60002     3.22376    -0.00001
 H    -2.33031     1.37355    -0.90118
 H    -2.33508     1.36518     0.89178
 H    -1.88303     2.84907     0.00349
