   42
 
 C     0.01014    -0.02108    -0.06702
 C     1.52621    -0.06139     0.18546
 C     1.98989     1.40343     0.31762
 C     0.78813     2.29556    -0.04593
 C    -0.26449     1.36577    -0.68520
 C    -1.70259     1.82393    -0.42080
 C    -2.03121     3.10913    -1.19062
 C    -3.47271     3.55391    -0.91120
 C    -3.79978     4.83978    -1.68103
 C    -5.24246     5.28508    -1.40988
 C    -5.56302     6.57308    -2.17890
 C    -7.01169     7.01066    -1.92946
 C    -7.32764     8.30386    -2.69298
 C    -8.77454     8.73687    -2.45622
 H    -0.54277    -0.14410     0.87932
 H    -0.31959    -0.83378    -0.72973
 H     2.04676    -0.55831    -0.64984
 H     1.76596    -0.64272     1.08868
 H     2.84501     1.60314    -0.34755
 H     2.33894     1.61636     1.34036
 H     1.07598     3.10536    -0.73218
 H     0.38149     2.78314     0.85564
 H    -0.08830     1.31517    -1.78358
 H    -2.40693     1.02218    -0.71366
 H    -1.85882     1.98052     0.66296
 H    -1.32531     3.91167    -0.90642
 H    -1.88733     2.94861    -2.27527
 H    -4.17880     2.75184    -1.19542
 H    -3.61610     3.71477     0.17344
 H    -3.09564     5.64252    -1.39317
 H    -3.65140     4.67974    -2.76527
 H    -5.94751     4.48443    -1.70074
 H    -5.39360     5.44352    -0.32601
 H    -4.86717     7.37746    -1.87570
 H    -5.39586     6.41894    -3.26123
 H    -7.70877     6.20989    -2.23851
 H    -7.18326     7.15983    -0.84739
 H    -6.63606     9.10781    -2.37787
 H    -7.14926     8.15762    -3.77496
 H    -9.48157     7.97040    -2.79238
 H    -8.96841     8.92101    -1.39374
 H    -9.00683     9.65984    -2.99842
