   26
 
 C     0.00000     0.00000     0.00000
 C     1.52857     0.00000     0.00000
 C     2.07609     1.43419     0.00000
 C     3.60990     1.42972    -0.00207
 C     4.15597     2.86325    -0.00006
 C     5.68981     2.85800    -0.00276
 C     6.23850     4.29118     0.00122
 C     7.76712     4.28884    -0.00213
 H     8.16544     5.30947     0.00225
 H     8.16476     3.78378    -0.88938
 H     8.16879     3.77456     0.87800
 H     5.86242     4.83681     0.88713
 H     5.85887     4.84293    -0.87937
 H     6.06529     2.31172    -0.88796
 H     6.06855     2.30562     0.87725
 H     3.77936     3.40986     0.88458
 H     3.77688     3.41316    -0.88156
 H     3.98530     0.88224    -0.88668
 H     3.98783     0.87890     0.87939
 H     1.69715     1.98228     0.88257
 H     1.69734     1.98214    -0.88265
 H     1.90835    -0.54888     0.88234
 H     1.90578    -0.54784    -0.88399
 H    -0.39656    -1.02129     0.00155
 H    -0.40049     0.50752    -0.88457
 H    -0.40065     0.51037     0.88287
