   57
 
 C     0.00000     0.00000     0.00000
 C     1.54162     0.00000     0.00000
 C     1.99792     1.47071     0.00000
 C     0.74438     2.31671     0.30830
 C    -0.44166     1.46126    -0.18242
 C     0.77012     3.68747    -0.37736
 C     1.83682     4.59907     0.24279
 C     1.85908     5.96185    -0.46125
 C     2.93312     6.86955     0.15225
 C     2.95962     8.23073    -0.55463
 C     4.04094     9.13499     0.05095
 C     4.07123    10.49364    -0.66085
 C     5.15401    11.39751    -0.05732
 C     5.19005    12.75253    -0.77576
 C     6.27272    13.65682    -0.17250
 C     6.31374    15.00876    -0.89649
 H    -0.40175    -0.64125    -0.79936
 H    -0.38719    -0.40861     0.94803
 H     1.93636    -0.53198    -0.88009
 H     1.93116    -0.53343     0.88184
 H     2.42166     1.74433    -0.98067
 H     2.79178     1.64912     0.74030
 H     0.66084     2.45856     1.40949
 H    -1.36065     1.68558     0.37825
 H    -0.66322     1.66880    -1.24264
 H    -0.22490     4.16402    -0.29226
 H     0.95515     3.56941    -1.46122
 H     1.64101     4.73235     1.32279
 H     2.83120     4.12028     0.17127
 H     0.86705     6.44421    -0.38514
 H     2.04978     5.82692    -1.54208
 H     2.74171     7.00715     1.23254
 H     3.92482     6.38578     0.07832
 H     1.97045     8.71853    -0.47480
 H     3.14387     8.09264    -1.63619
 H     3.85468     9.27734     1.13155
 H     5.02987     8.64607    -0.02535
 H     3.08304    10.98388    -0.58381
 H     4.25637    10.35101    -1.74167
 H     4.96563    11.54586     1.02213
 H     6.14159    10.90519    -0.12880
 H     4.20277    13.24550    -0.70481
 H     5.37905    12.60421    -1.85515
 H     6.08116    13.81033     0.90567
 H     7.25963    13.16243    -0.23863
 H     5.32696    15.50352    -0.83132
 H     6.50634    14.85546    -1.97453
 C     7.39552    15.91378    -0.29318
 H     8.38219    15.41836    -0.35313
 H     7.20110    16.07212     0.78372
 H     7.63913    17.10610    -2.09855
 C     7.44300    17.26360    -1.02096
 C     8.51875    18.16895    -0.42070
 H     6.45584    17.75954    -0.96295
 H     9.51237    17.71327    -0.49516
 H     8.32678    18.37025     0.63905
 H     8.55926    19.13398    -0.93747
