   54
 
 C     0.00802    -0.02506    -0.05024
 C     1.52348    -0.06859     0.20639
 C     1.99607     1.39600     0.30868
 H   -12.47059    12.37856    -2.42826
 C     0.79313     2.28811    -0.05060
 C    -0.26131     1.35591    -0.68311
 C    -1.69881     1.82053    -0.42739
 C    -2.02009     3.10238    -1.20604
 C    -3.46218     3.55064    -0.93611
 C    -3.78003     4.84014    -1.70370
 C    -5.22243     5.28975    -1.43931
 C    -5.53065     6.58602    -2.19915
 C    -6.97846     7.02798    -1.95266
 C    -7.28173     8.33213    -2.70092
 C    -8.73485     8.76472    -2.46795
 C    -9.03452    10.07633    -3.20452
 C   -10.49060    10.50303    -2.98054
 C   -10.78944    11.82307    -3.70367
 H    -0.54811    -0.13620     0.89565
 H    -0.32204    -0.84404    -0.70517
 H     1.75790    -0.63208     1.12231
 H     2.04288    -0.58653    -0.61663
 H     2.84096     1.58087    -0.37390
 H     2.36304     1.62300     1.32201
 H   -12.93871    11.49103    -3.88305
 H   -12.46296    13.18885    -3.99830
 H     0.39044     2.77709     0.85199
 H     1.07756     3.09697    -0.73946
 H    -0.08324     1.29447    -1.78056
 H    -1.86008     1.98404     0.65457
 H    -2.40434     1.01923    -0.71884
 H    -1.31399     3.90476    -0.92215
 H    -1.87066     2.93607    -2.28912
 H    -3.61306     3.70839     0.14806
 H    -4.16851     2.75173    -1.22821
 H    -3.07482     5.63950    -1.40883
 H    -3.62592     4.68343    -2.78769
 H    -5.38120     5.43923    -0.35526
 H    -5.92930     4.49516    -1.74251
 H    -4.83198     7.38392    -1.88519
 H    -5.35842     6.44064    -3.28193
 H    -7.15422     7.16329    -0.86914
 H    -7.67668     6.23391    -2.27661
 H    -6.59111     9.12916    -2.36776
 H    -7.09471     8.20086    -3.78282
 H    -8.92522     8.88642    -1.38542
 H    -9.42541     7.97154    -2.81027
 H    -8.34865    10.87095    -2.85655
 H    -8.83703     9.95703    -4.28609
 H   -10.69242    10.61169    -1.89879
 H   -11.17667     9.71310    -3.33826
 H   -10.10993    12.61640    -3.33886
 H   -10.57996    11.71847    -4.78484
 C   -12.24419    12.24286    -3.49159
