   57
 
 C     0.00000     0.00000     0.00000
 C     1.53435     0.00000     0.00000
 C     2.07744     1.43485     0.00000
 C     1.54450     2.21582    -1.21455
 C     0.00422     2.22590    -1.18542
 C     2.07439     3.66103    -1.21133
 C     3.54733     3.72180    -1.63364
 C     4.06317     5.16594    -1.59123
 C     5.52444     5.23161    -2.05245
 C     6.04766     6.67221    -1.99507
 C     7.50271     6.73992    -2.47530
 C     8.02930     8.17903    -2.41035
 C     9.48015     8.24797    -2.90298
 C    10.00874     9.68622    -2.83382
 C    11.45694     9.75604    -3.33417
 C    11.98680    11.19354    -3.26282
 H    -0.37627     0.44149     0.94145
 H    -0.37998    -1.03694    -0.02646
 H     1.90986    -0.54446    -0.88640
 H     1.91444    -0.54883     0.88033
 H     3.18207     1.41978    -0.01257
 H     1.78882     1.94735     0.93572
 H     1.87969     1.70694    -2.14838
 H    -0.38983     2.78807    -2.05053
 H    -0.35279     2.75611    -0.28385
 H     1.94529     4.10979    -0.20948
 H     1.46887     4.28283    -1.89778
 H     4.16215     3.08273    -0.97282
 H     3.66619     3.30623    -2.65172
 H     3.97015     5.57111    -0.56644
 H     3.43488     5.81268    -2.23132
 H     6.15158     4.57585    -1.42011
 H     5.61509     4.83683    -3.08154
 H     5.97041     7.06283    -0.96332
 H     5.41332     7.33117    -2.61667
 H     8.13690     6.07661    -1.85808
 H     7.57879     6.35541    -3.50944
 H     7.96210     8.56097    -1.37465
 H     7.39057     8.84431    -3.02066
 H    10.11903     7.58031    -2.29537
 H     9.54678     7.86984    -3.94012
 H     9.94803    10.06319    -1.79590
 H     9.36747    10.35535    -3.43723
 H    12.09858     9.08574    -2.73245
 H    11.51753     9.38147    -4.37295
 H    11.93024    11.56842    -2.22401
 H    11.34425    11.86547    -3.86157
 C    13.43386    11.26611    -3.76777
 H    13.49103    10.89290    -4.80771
 H    14.07767    10.59410    -3.16944
 H    13.95428    13.07797    -2.66987
 C    13.96537    12.69764    -3.69705
 H    13.36272    13.37885    -4.30793
 H    14.99748    12.75608    -4.05946
 C    -0.53865     0.79104    -1.19924
 H    -1.64326     0.80296    -1.18127
 H    -0.25269     0.28883    -2.14193
