   48
 
 C     0.00000     0.00000     0.00000
 C     1.54178     0.00000     0.00000
 C     1.99781     1.47103     0.00000
 C     0.74410     2.31624     0.30956
 C    -0.44088     1.46111    -0.18501
 C     0.77008     3.68974    -0.37005
 C     1.83370     4.60026     0.25656
 C     1.85914     5.96455    -0.44414
 C     2.92817     6.87211     0.17787
 C     2.95690     8.23540    -0.52456
 C     4.03472     9.13868     0.08832
 C     4.06447    10.50102    -0.61623
 C     5.14424    11.40363    -0.00573
 C     5.17690    12.76405    -0.71349
 C     6.25591    13.66919    -0.10376
 C     6.29234    15.02488    -0.80943
 H    -0.40192    -0.64319    -0.79760
 H    -0.38713    -0.40598     0.94914
 H     1.93654    -0.53179    -0.88011
 H     1.93139    -0.53335     0.88175
 H     2.42065     1.74514    -0.98088
 H     2.79220     1.64958     0.73967
 H     0.65940     2.45302     1.41142
 H    -1.36230     1.68607     0.37127
 H    -0.65707     1.66838    -1.24636
 H    -0.22600     4.16435    -0.28579
 H     0.95808     3.57609    -1.45396
 H     1.63242     4.73122     1.33592
 H     2.82829     4.12120     0.18921
 H     0.86592     6.44538    -0.37330
 H     2.05660     5.83185    -1.52410
 H     2.72995     7.00633     1.25741
 H     3.92079     6.38940     0.10881
 H     1.96679     8.72187    -0.44762
 H     3.14580     8.10054    -1.60578
 H     3.84483     9.27528     1.16910
 H     5.02464     8.65158     0.01271
 H     3.07515    10.98905    -0.53896
 H     4.25224    10.36428    -1.69741
 H     4.95451    11.54319     1.07471
 H     6.13306    10.91418    -0.08000
 H     4.18818    13.25368    -0.64045
 H     5.36700    12.62535    -1.79389
 H     6.06466    13.81044     0.97664
 H     7.24509    13.17909    -0.17526
 H     5.33243    15.54627    -0.72447
 H     6.51446    14.91493    -1.87668
 H     7.06046    15.67629    -0.37837
