   19
 
 C     0.00000     0.00000     0.00000
 O     1.42356     0.00000     0.00000
 C     2.02122     1.21798     0.00000
 C     3.52617     1.02573     0.00788
 N     4.03530     1.61612     1.26470
 C     4.11787     3.08809     1.17539
 O     1.40282     2.24698    -0.05297
 C     5.35060     1.03804     1.61266
 H    -0.37901     0.49127    -0.90241
 H    -0.37663     0.50616     0.89587
 H    -0.24887    -1.06719     0.01099
 H     3.76931    -0.06355    -0.02207
 H     3.94988     1.47836    -0.91652
 H     4.85294     3.46442     0.45028
 H     3.12406     3.49748     0.91033
 H     4.36822     3.48568     2.17360
 H     6.13994     1.20946     0.86681
 H     5.23939    -0.04786     1.77182
 H     5.68032     1.46883     2.57425
