   21
 
 C    -0.09679     0.14350    -0.20576
 N     1.36656    -0.06610    -0.21444
 C     2.06681     1.22325    -0.02450
 C     1.81268    -0.72060    -1.47031
 C     1.51178    -2.22707    -1.37877
 C     1.99962    -2.94270    -2.64723
 N     1.75418    -4.39834    -2.51501
 H    -0.60310    -0.83191    -0.29294
 H    -0.47064     0.80192    -1.00331
 H    -0.38934     0.57132     0.76769
 H     3.14646     1.02847     0.08809
 H     1.92148     1.94776    -0.83863
 H     1.72397     1.68411     0.91683
 H     2.91087    -0.57695    -1.57754
 H     1.34383    -0.28302    -2.37578
 H     2.00996    -2.65393    -0.48326
 H     0.43309    -2.40197    -1.22218
 H     1.51553    -2.50556    -3.54602
 H     3.09819    -2.80432    -2.76645
 H     0.81075    -4.59559    -2.22692
 H     1.93849    -4.88499    -3.37582
