   26
 
 N    -0.01310     0.00694    -0.10466
 C     0.02000     1.47774    -0.17419
 C    -0.11571     2.05969    -1.58650
 C    -1.36702    -0.57286    -0.09065
 C    -2.00861    -0.76830    -1.46995
 C     1.02712    -0.71645    -0.70181
 C     0.91399    -2.10811    -0.91011
 C     1.98983    -2.83371    -1.40509
 C     3.19745    -2.20772    -1.70633
 C     3.32251    -0.83668    -1.49413
 C     2.25799    -0.09307    -1.00208
 H    -0.78999     1.87494     0.47895
 H     0.97416     1.82206     0.29217
 H     0.60751     1.60897    -2.27852
 H    -1.11177     1.88341    -2.00494
 H     0.05579     3.14122    -1.58361
 H    -1.31487    -1.54826     0.44872
 H    -2.01732     0.08048     0.53564
 H    -2.23599     0.18819    -1.95146
 H    -1.34861    -1.32333    -2.14856
 H    -2.94611    -1.32930    -1.38967
 H    -0.00907    -2.62926    -0.67792
 H     1.88486    -3.90730    -1.56017
 H     4.02991    -2.78072    -2.09949
 H     4.26515    -0.33731    -1.71805
 H     2.39132     0.97210    -0.84467
