   36
 
 C     0.00000     0.00000     0.00000
 C     1.52881     0.00000     0.00000
 C     2.07550     1.43377     0.00000
 C     3.60895     1.43369    -0.02772
 C     4.15074     2.86801     0.00717
 C     5.68388     2.87279    -0.04940
 C     6.21496     4.30810     0.01785
 C     7.74546     4.32688    -0.06282
 C     8.24056     5.75241     0.03611
 N     9.60362     5.96138    -0.01610
 C    10.56619     4.88180    -0.20553
 C    10.14037     7.31926     0.05711
 O     7.49396     6.70493     0.16698
 H    -0.40053     0.51429     0.88076
 H    -0.40046     0.50408    -0.88662
 H    -0.39710    -1.02090     0.00582
 H     1.90730    -0.54970     0.88214
 H     1.90627    -0.54894    -0.88314
 H     1.67991     1.98832    -0.87130
 H     1.71113     1.97526     0.89297
 H     4.00342     0.85814     0.83000
 H     3.97037     0.91286    -0.93356
 H     3.73839     3.44967    -0.83883
 H     3.80318     3.38122     0.92379
 H     6.09455     2.27403     0.78456
 H     6.02831     2.38043    -0.97753
 H     5.78674     4.92289    -0.79904
 H     5.88034     4.80522     0.95083
 H     8.17745     3.71366     0.75279
 H     8.08268     3.86779    -1.01292
 H    10.48335     4.13218     0.60229
 H    10.41279     4.37550    -1.17570
 H    11.60088     5.26535    -0.19179
 H    10.71210     7.56844    -0.85208
 H     9.31578     8.05668     0.15044
 H    10.79195     7.43384     0.93978
