   16
 
 N    -0.00917     0.00229     0.11212
 C     1.41896     0.00702     0.44544
 C    -0.72173     1.22456     0.50728
 C    -0.71423    -1.18155     0.17494
 C    -0.16111    -2.41606     0.26617
 C    -0.96799    -3.62142     0.14525
 O    -0.49827    -4.73318     0.25828
 H     1.61221    -0.18425     1.51524
 H     1.94121    -0.76926    -0.14686
 H     1.86628     0.97790     0.17463
 H    -1.74494     1.22761     0.09348
 H    -0.78655     1.34395     1.60212
 H    -0.20224     2.10672     0.09187
 H    -1.80421    -1.06491     0.05014
 H     0.89745    -2.58470     0.43003
 H    -2.04361    -3.50894    -0.05577
