   23
 
 C    -0.00386    -0.00230    -0.00717
 N     1.45344     0.13061     0.16867
 C     2.00861    -0.92277     1.03594
 C     2.19692     0.46452    -0.97900
 C     3.58634     0.23487    -1.02914
 C     4.33279     0.70544    -2.10323
 C     3.72784     1.39830    -3.14663
 C     2.34782     1.61629    -3.11466
 C     1.58538     1.14930    -2.04858
 C     1.69578     2.35510    -4.23661
 H    -0.42885     0.98924    -0.24914
 H    -0.28623    -0.71335    -0.79959
 H    -0.47431    -0.32429     0.93591
 H     2.15613    -1.88424     0.51843
 H     2.97779    -0.58510     1.44612
 H     1.34406    -1.08715     1.90086
 H     4.09040    -0.29908    -0.23161
 H     5.40760     0.52544    -2.12626
 H     4.31862     1.76675    -3.97822
 H     0.51666     1.33128    -2.04705
 H     2.07995     3.38443    -4.30403
 H     1.89429     1.86796    -5.20228
 H     0.60632     2.42475    -4.12610
