   36
 
 C     0.00000     0.00000     0.00000
 C     1.54393     0.00000     0.00000
 C     2.06044     1.45263     0.00000
 C     1.54540     2.19163    -1.25038
 C     0.00392     2.18502    -1.25426
 C    -0.46630     0.71190    -1.29232
 C    -0.49583     0.72250     1.26325
 H    -0.38330    -1.04460    -0.00020
 H     1.93271    -0.54580    -0.87548
 H     1.91957    -0.53589     0.88901
 H     3.17240     1.44957    -0.00374
 C     1.55034     2.18007     1.25795
 H     1.93787     1.71711    -2.16527
 H     1.91826     3.23086    -1.25713
 H    -0.36859     2.72352    -2.15381
 C    -0.52019     2.88912     0.00875
 C    -1.97098     0.63599    -1.46433
 H     0.02752     0.19585    -2.15268
 H    -1.60410     0.70259     1.30458
 C     0.00987     2.17383     1.26476
 H    -0.14910     0.18933     2.16487
 H     1.92939     3.21566     1.28151
 H     1.93614     1.68793     2.16701
 O    -2.75271     0.49353    -0.54125
 H    -1.62752     2.88132     0.01479
 H    -0.21434     3.94880     0.00959
 H    -0.36125     2.69748     2.17340
 N    -2.48446     0.72602    -2.74452
 C    -1.66938     0.85564    -3.94791
 C    -3.93195     0.66067    -2.95030
 H    -0.90924     1.64930    -3.83603
 H    -1.15640    -0.09522    -4.18249
 H    -2.29137     1.12407    -4.81944
 H    -4.31273     1.61215    -3.35702
 H    -4.45317     0.47529    -1.98772
 H    -4.19460    -0.16160    -3.63555
