   24
 
 C     0.93663     0.44584    -0.34425
 C     1.22912    -0.78997    -1.12905
 O     1.03453    -0.86489    -2.31720
 C     1.74788    -2.02061    -0.38050
 N     2.73964    -1.58286     0.62305
 C     2.60673    -2.33615     1.89684
 C     3.13227    -1.46541     3.04685
 C     4.12541    -1.66125     0.09432
 C     4.34140    -0.60102    -0.99079
 H     1.79707     0.71383     0.29453
 H     0.08445     0.29592     0.33099
 H     0.71081     1.29961    -0.99662
 H     0.87244    -2.51678     0.09316
 H     2.15359    -2.75466    -1.11205
 H     1.53285    -2.56155     2.07967
 H     3.13732    -3.31131     1.87565
 H     4.22541    -1.42972     3.07026
 H     2.77740    -0.43113     2.94089
 H     2.78664    -1.84198     4.01366
 H     4.82483    -1.46536     0.93831
 H     4.37302    -2.67005    -0.30118
 H     3.74030    -0.80144    -1.88669
 H     4.06157     0.39555    -0.62753
 H     5.39128    -0.56339    -1.29843
