   26
 
 C    -0.01380     0.04600    -0.06459
 C     1.13337     0.34941     0.66306
 C     1.80103     1.55351     0.44575
 C     1.28794     2.43920    -0.50250
 C     0.12369     2.14799    -1.23531
 C    -0.52554     0.94573    -1.00468
 C    -0.74772    -1.21645     0.21706
 O    -1.57775    -1.30231     1.10341
 N    -0.44677    -2.31989    -0.54951
 C     0.48761    -2.30802    -1.66986
 C    -1.16242    -3.57672    -0.33205
 H     1.50862    -0.35370     1.40901
 H     2.69461     1.78512     1.01436
 H    -0.25130     2.86673    -1.95925
 H    -1.43946     0.70197    -1.54956
 H    -0.04810    -2.39384    -2.63263
 H     1.08224    -1.37782    -1.69466
 H     1.19628    -3.15199    -1.58926
 H    -1.94612    -3.44950     0.44282
 H    -1.65447    -3.91836    -1.25695
 H    -0.46900    -4.36027     0.01817
 O     1.82560     3.64155    -0.83211
 H     2.73766     4.17202     0.96109
 H     3.81253     3.38957    -0.26781
 C     2.96953     4.06736    -0.10378
 H     3.17603     5.05001    -0.55009
