   48
 
 C     0.00000     0.00000     0.00000
 C     1.39332     0.00000     0.00000
 C     2.07586     1.21467     0.00000
 C     1.35149     2.40501    -0.00061
 C    -0.04179     2.40486     0.00477
 C    -0.72434     1.19009     0.00155
 C    -0.72871    -1.30413    -0.04794
 C     2.07787     3.71078     0.03666
 O    -0.97512    -1.87689    -1.08362
 O     2.24603     4.33820     1.05588
 N    -1.08886    -1.78433     1.20359
 N     2.53300     4.12435    -1.20850
 C     3.25346     5.31759    -1.46795
 C     3.57543     5.58614    -2.80699
 C     4.28777     6.73403    -3.14249
 C     4.67316     7.60813    -2.12861
 C     4.35697     7.35269    -0.78489
 C     3.64850     6.20860    -0.45635
 C    -1.78102    -2.99695     1.45031
 C    -2.24620    -3.83390     0.43233
 C    -2.92335    -5.00950     0.75115
 C    -3.12960    -5.33628     2.08852
 C    -2.66917    -4.50516     3.12327
 C    -1.99706    -3.33957     2.80111
 O    -3.77140    -6.44486     2.55019
 C    -4.26892    -7.35257     1.57768
 O     5.37133     8.76506    -2.29610
 C     5.73508     9.11327    -3.62389
 H     1.94474    -0.94105    -0.00808
 H     3.16626     1.23185     0.00671
 H    -0.59309     3.34619     0.01671
 H    -1.81482     1.17264    -0.00559
 H    -0.82965    -1.24339     2.02429
 H     2.32802     3.54302    -2.01672
 H     3.27127     4.90147    -3.59615
 H     4.53054     6.93001    -4.18177
 H     4.67202     8.05661    -0.01596
 H     3.40370     6.01228     0.59219
 H    -2.08806    -3.58320    -0.62066
 H    -3.27880    -5.65080    -0.04988
 H    -2.84639    -4.78864     4.15873
 H    -1.63585    -2.69081     3.59731
 H    -4.72295    -8.13430     2.20180
 H    -3.45437    -7.76923     0.97713
 H    -5.02861    -6.87659     0.94997
 H     6.27493    10.05870    -3.47492
 H     4.84795     9.27424    -4.24387
 H     6.39846     8.36015    -4.05971
