   48
 
 C     0.00000     0.00000     0.00000
 C     1.39328     0.00000     0.00000
 C     2.07576     1.21484     0.00000
 C     1.35097     2.40478    -0.00195
 C    -0.04232     2.40470     0.00198
 C    -0.72478     1.18991     0.00109
 C    -0.73150    -1.30216    -0.05051
 C     2.08342     3.70693     0.03326
 O    -1.03862    -1.84137    -1.08530
 O     2.40272     4.25531     1.05913
 N    -1.01867    -1.82304     1.20995
 N     2.35680     4.21634    -1.23593
 C     3.03542     5.42476    -1.51235
 C     3.20086     5.74577    -2.87573
 C     3.86346     6.92496    -3.19783
 C     4.36441     7.79201    -2.21091
 C     4.18564     7.44885    -0.88029
 C     3.52581     6.27285    -0.51688
 C    -1.69753    -3.03493     1.46654
 C    -2.18023    -3.87536     0.45285
 C    -2.83788    -5.05173     0.79572
 C    -3.02965    -5.41735     2.12630
 C    -2.54254    -4.56734     3.12095
 C    -1.87589    -3.37558     2.81551
 O    -2.64580    -4.77758     4.45921
 C    -3.31583    -5.95677     4.88331
 O     4.10233     7.37232    -4.45691
 C     3.63830     6.57408    -5.53664
 H     1.94553    -0.94072    -0.00648
 H     3.16645     1.23268     0.00746
 H    -0.59451     3.34539     0.01169
 H    -1.81548     1.17221    -0.00483
 H    -0.71744    -1.29574     2.02835
 H     2.04652     3.68059    -2.04389
 H     2.82038     5.08805    -3.64546
 H     4.87611     8.70358    -2.50293
 H     4.56635     8.10717    -0.09654
 H     3.40398     6.03549     0.54022
 H    -2.04808    -3.62137    -0.59925
 H    -3.21174    -5.70299     0.00328
 H    -3.54367    -6.33860     2.36798
 H    -1.51428    -2.74641     3.62219
 H    -3.26716    -5.86846     5.97748
 H    -2.78213    -6.85097     4.54684
 H    -4.35667    -5.95929     4.54540
 H     3.96098     7.15791    -6.41010
 H     2.54775     6.48608    -5.51749
 H     4.12145     5.59226    -5.53364
