   22
 
 C     0.00000     0.00000     0.00000
 C     1.53240     0.00000     0.00000
 C     2.07360     1.43441     0.00000
 C     1.54344     2.20593    -1.21333
 C     0.00938     2.21776    -1.22852
 C    -0.54800     0.77639    -1.22515
 N    -0.06299     0.08080    -2.46885
 N    -2.05571     0.67501    -1.15768
 F    -2.59225     1.42814    -2.17481
 F    -2.50467     1.40633    -0.08454
 F    -0.66508    -1.15111    -2.56372
 F    -0.62718     0.68346    -3.56899
 H    -0.36591     0.46880     0.93506
 H    -0.38790    -1.03744     0.01857
 H     1.91689    -0.54794    -0.88426
 H     1.90698    -0.55257     0.88190
 H     3.17994     1.41973    -0.01620
 H     1.79150     1.95011     0.93638
 H     1.93110     1.75149    -2.14807
 H     1.92536     3.24437    -1.20321
 H    -0.35131     2.79942    -2.09763
 H    -0.35655     2.76228    -0.33495
