   25
 
 C     0.00281     0.00854     0.01614
 C     1.07248     0.34824     0.84338
 C     1.71639     1.56852     0.66718
 C     1.28844     2.45077    -0.33052
 C     0.20024     2.11206    -1.13812
 C    -0.44642     0.89042    -0.96354
 C    -0.69523    -1.29142     0.22024
 O    -1.64276    -1.41907     0.97239
 N    -0.21442    -2.37201    -0.48412
 C     0.90870    -2.26142    -1.41107
 C    -0.82841    -3.68863    -0.33179
 C     2.00137     3.74655    -0.51973
 H     1.39508    -0.33652     1.62729
 H     2.55219     1.83888     1.30839
 H    -0.14821     2.80237    -1.90320
 H    -1.30373     0.62959    -1.58421
 H     0.68016    -1.54738    -2.22351
 H     1.81683    -1.90835    -0.88895
 H     1.14150    -3.23491    -1.87280
 H    -1.67279    -3.64166     0.38727
 H    -1.22698    -4.05035    -1.29438
 H    -0.09738    -4.41863     0.05568
 H     1.58615     4.34774    -1.33912
 H     1.95378     4.36630     0.38840
 H     3.06608     3.58720    -0.74634
