   17
 
 C     0.07753    -0.04914     0.01603
 C     1.45770     0.02131     0.20530
 C     2.09888     1.25794     0.16152
 C     1.36514     2.41925    -0.07385
 C    -0.01451     2.34712    -0.26087
 C    -0.65949     1.11409    -0.21484
 C    -0.62705    -1.37710     0.05718
 N    -1.22346    -1.62993    -1.28647
 F    -1.71243    -2.92003    -1.28772
 F    -0.18807    -1.78810    -2.18054
 H     2.03832    -0.88218     0.38146
 H     3.17593     1.31518     0.30717
 H     1.86853     3.38332    -0.11497
 H    -0.58736     3.25401    -0.44534
 H    -1.73599     1.05256    -0.37333
 H    -1.47598    -1.33976     0.78692
 H     0.04855    -2.18579     0.41820
