   24
 
 C     0.00684     0.13371    -0.01932
 C     1.54609     0.07689     0.02894
 C     2.17337     1.47987     0.15745
 N     3.65057     1.31258    -0.05485
 C     1.97408     2.02922     1.58898
 N     1.68867     3.47350     1.74363
 F     2.58128     4.19192     0.98182
 F     0.52987     3.76930     1.05647
 F     4.23140     2.56033    -0.00162
 F     3.86287     1.04654    -1.38986
 C    -0.47968     0.73274    -1.34285
 C    -0.54803    -1.28632     0.14763
 H    -0.37357     0.76395     0.82056
 H     1.90944    -0.43833    -0.88295
 H     1.88551    -0.56366     0.86660
 H     1.70313     2.15774    -0.60199
 H     2.87282     1.81496     2.22650
 H     1.14092     1.48124     2.09846
 H    -1.57410     0.70723    -1.40823
 H    -0.09077     0.17972    -2.20536
 H    -0.17812     1.77944    -1.45574
 H    -1.64382    -1.28903     0.12383
 H    -0.24102    -1.73080     1.10025
 H    -0.20488    -1.95023    -0.65405
