   17
 
 C     0.00000     0.00000     0.00000
 C     1.53731     0.00000     0.00000
 C     2.04974     1.44939     0.00000
 H     3.14376     1.48450     0.00090
 C     2.04981    -0.72478     1.25513
 C     2.04966    -0.72468    -1.25525
 H     1.70073     1.99468     0.88259
 H     1.70249     1.99406    -0.88367
 H    -0.39777    -1.01975     0.00105
 H    -0.39777     0.50888    -0.88371
 H    -0.39777     0.51081     0.88259
 H     1.70133    -0.23279     2.16871
 H     3.14383    -0.74196     1.28569
 H     1.70208    -1.76223     1.28523
 H     1.70105    -0.23264    -2.16875
 H     1.70194    -1.76212    -1.28539
 H     3.14368    -0.74181    -1.28597
