   18
 
 C     0.00000     0.00000     0.00000
 C     1.54883     0.00000     0.00000
 C     1.92915     1.51340     0.00000
 C     0.56385     2.24460    -0.00060
 C    -0.11387     2.02682     1.37438
 C    -0.49378     0.51299     1.37486
 C    -0.25160     1.25588    -0.84561
 H    -0.46155    -0.92912    -0.33983
 H     1.94859    -0.51422    -0.88663
 H     1.95491    -0.52113     0.87747
 H     0.59549     3.28093    -0.34226
 H    -1.00427     2.66330     1.48664
 H     0.56078     2.27697     2.20428
 H    -1.57915     0.37268     1.48783
 H    -0.01685    -0.02553     2.20489
 O    -0.87929     1.41297    -1.84401
 H     2.52443     1.77767    -0.88663
 H     2.53275     1.78062     0.87789
