   15
 
 C     0.00000     0.00000     0.00000
 C     1.58078     0.00000     0.00000
 C    -0.06159     1.57978     0.00000
 C     1.80971     0.91092     1.21371
 C     0.83965     1.84417     1.21344
 C     1.80907     0.91004    -1.21452
 C     0.83878     1.84302    -1.21455
 H    -0.44170    -0.45871     0.88616
 H    -0.44158    -0.45859    -0.88627
 H     2.08092    -0.96282     0.00010
 H    -1.04298     2.04234     0.00011
 H     2.62732     0.76332     1.88200
 H     0.66011     2.65575     1.88118
 H     2.62609     0.76184    -1.88335
 H     0.65870     2.65387    -1.88297
