   17
 
 C     0.00000     0.00000     0.00000
 C     1.41350     0.00000     0.00000
 C     2.09724     1.23279     0.00000
 C     1.41450     2.43288    -0.00659
 C     0.00958     2.42959    -0.01498
 C    -0.69280     1.24512    -0.01056
 N    -0.73827    -1.15120     0.01525
 C     2.26882    -1.17487    -0.00356
 O     1.58696    -2.36182    -0.09939
 O     3.47287    -1.21994     0.06308
 H    -0.52432     3.38185    -0.02445
 H    -1.77770     1.24912    -0.01629
 H    -1.73371    -1.11944     0.01733
 H    -0.29671    -2.05000     0.03033
 H     2.17847    -3.15059    -0.07462
 H     1.95267     3.37557    -0.00711
 H     3.19408     1.22559     0.00449
