   16
 
 C     0.00313    -0.00309     0.00664
 C     1.40183     0.00843    -0.02200
 C     2.12241     1.20295    -0.05541
 C     1.40309     2.39898    -0.05639
 C    -0.68918     1.20530     0.00554
 C     0.00444     2.41298    -0.02469
 H    -0.53907    -0.95708     0.02977
 N     2.12321    -1.26029    -0.01467
 H    -1.78055     1.20621     0.02871
 H     3.22488     1.20213    -0.08057
 H    -0.53701     3.36756    -0.02351
 N     2.12662     3.66582    -0.09122
 O     3.34293     3.62807    -0.14303
 O     1.47147     4.69401    -0.06628
 O     1.46512    -2.28679    -0.00631
 O     3.34056    -1.22544    -0.01622
