   18
 
 C     0.00000     0.00000     0.00000
 C     1.40323     0.00000     0.00000
 C     2.10731     1.19607     0.00000
 C     1.40925     2.40548    -0.00440
 C     0.01991     2.41195    -0.00481
 C    -0.70337     1.21091    -0.00079
 C    -0.62461    -1.32842    -0.00062
 O    -1.98395    -1.30260    -0.06811
 O    -0.06067    -2.39538     0.04661
 C    -2.18847     1.26980     0.00646
 H     1.93969    -0.95512     0.00091
 H     3.19494     1.19272     0.00313
 H     1.95764     3.34759    -0.00697
 H    -0.51474     3.35994    -0.00834
 H    -2.38102    -2.21079    -0.07125
 H    -2.58307     2.29195     0.06376
 H    -2.61266     0.70993     0.85820
 H    -2.61159     0.80607    -0.90195
