   25
 
 C     0.05562     0.10016    -0.68281
 C     1.29854    -0.02493    -0.06705
 C     1.81512     1.13623     0.54004
 C     1.14370     2.35845     0.53815
 C    -0.09703     2.44024    -0.08977
 C    -0.63814     1.31336    -0.69718
 C     2.06700    -1.32815    -0.03656
 C     2.25736    -1.76529     1.42751
 C     1.33141    -2.46236    -0.77692
 C     3.43268    -1.13046    -0.71939
 O     3.02851     1.02319     1.14939
 H    -0.40410    -0.75961    -1.17109
 H    -1.60636     1.37121    -1.18835
 H     1.57787     3.22931     1.01608
 H     1.29372    -1.87621     1.93467
 H     2.84462    -1.03277     1.99467
 H     2.78564    -2.72144     1.48942
 H     1.18619    -2.22369    -1.83519
 H     0.35415    -2.66895    -0.32889
 H     1.91041    -3.39174    -0.73151
 H     4.05255    -0.40222    -0.18219
 H     3.31323    -0.76607    -1.74437
 H     3.99521    -2.06823    -0.75645
 H     3.32376     1.87752     1.54577
 H    -0.63760     3.38482    -0.10227
