   17
 
 C    -0.02129     0.00274    -0.01952
 C    -0.08864    -1.48696    -0.02917
 C    -0.72842    -2.16258     1.00565
 C    -0.81684    -3.55436     1.01183
 C    -0.26446    -4.28713    -0.03532
 C     0.38545    -3.63925    -1.07932
 C     0.48336    -2.23677    -1.08157
 N     1.09134    -1.60100    -2.17163
 H     1.01025     0.36181     0.10091
 H    -0.42561     0.42934    -0.95012
 H    -0.60684     0.44014     0.80180
 H    -1.16640    -1.59654     1.82688
 H    -1.31560    -4.06305     1.83096
 H    -0.33665    -5.37358    -0.03701
 H     0.80994    -4.21486    -1.89574
 H     1.42178    -0.66689    -2.04288
 H     1.67102    -2.15972    -2.76526
