   18
 
 C     0.00000     0.00000     0.00000
 C     2.79668     0.00000     0.00000
 C     0.69948     1.20476     0.00000
 C     0.69653    -1.20565    -0.00051
 C     2.09505     1.21486    -0.00018
 C     2.08962    -1.20348    -0.00030
 H    -1.08731     0.00293     0.00121
 H     0.14992     2.14415     0.00026
 H     0.15452    -2.14878    -0.00072
 C     2.82459     2.51611    -0.00056
 H     2.62765    -2.14920    -0.00047
 C     4.28832    -0.01860     0.00107
 H     4.69347     0.49386     0.88658
 H     4.69944    -1.03696     0.00323
 H     4.69452     0.49054    -0.88586
 H     3.47055     2.61194     0.88505
 H     3.46885     2.61204    -0.88740
 H     2.14814     3.38120     0.00012
