   27
 
 C    -0.00434     0.00009     0.00213
 C     1.53582     0.00890     0.05722
 C     2.14727     1.42033    -0.00586
 C     1.58469     2.26989    -1.16228
 C     0.06792     2.25567    -1.04558
 C    -0.48811     0.80505    -1.20739
 C    -0.06093     0.11876    -2.51134
 C    -2.01112     1.06386    -1.28187
 C    -2.11487     2.39749    -2.00097
 C    -0.76020     3.08525    -2.03387
 O    -3.12253     2.84503    -2.47251
 H    -0.41740     0.42085     0.93740
 H    -0.37270    -1.04024    -0.04892
 H     1.86919    -0.49112     0.98626
 H     1.93692    -0.60344    -0.77234
 H     3.24551     1.33944    -0.10428
 H     1.96719     1.94270     0.95294
 H     1.92036     1.87767    -2.13768
 H     1.97410     3.30239    -1.10264
 H    -0.19047     2.61066    -0.01301
 H    -0.40213     0.67196    -3.39245
 H     1.02796     0.02707    -2.58927
 H    -0.47522    -0.89394    -2.57459
 H    -2.55970     0.27018    -1.81288
 H    -2.47411     1.12940    -0.28248
 H    -0.83362     4.14768    -1.75223
 H    -0.34076     3.07304    -3.05441
