   25
 
 C     0.00000     0.00000     0.00000
 C     1.52898     0.00000     0.00000
 C     2.07505     1.43400     0.00000
 C     3.60880     1.43242     0.00240
 C     4.15141     2.86725     0.00159
 C     5.68599     2.86472     0.00643
 C     6.22642     4.29489     0.00511
 C     7.72960     4.33179     0.01224
 O     8.33434     5.37578     0.01458
 H    -0.40099     0.51007     0.88289
 H    -0.40080     0.50715    -0.88466
 H    -0.39632    -1.02150     0.00155
 H     1.90620    -0.55089     0.88213
 H     1.90599    -0.54954    -0.88313
 H     1.69536     1.98148    -0.88275
 H     1.69342     1.98230     0.88153
 H     3.98394     0.88259     0.88570
 H     3.98656     0.88196    -0.87949
 H     3.77247     3.41285    -0.88304
 H     3.76777     3.41576     0.88250
 H     6.05556     2.31317     0.89247
 H     6.06118     2.31086    -0.87583
 H     5.84700     4.85769    -0.87460
 H     5.83945     4.86211     0.87883
 H     8.26818     3.37607     0.01517
