   42
 
 C     0.00000     0.00000     0.00000
 C     1.53437     0.00000     0.00000
 C     2.07671     1.43525     0.00000
 C     1.52917     2.21908    -1.19989
 C    -0.00488     2.21393    -1.19475
 C    -0.53907     0.77055    -1.22028
 C    -2.07840     0.75370    -1.20806
 C    -2.65651     1.15452    -2.57116
 C    -4.19035     1.14377    -2.53097
 C    -4.76871     1.52396    -3.90014
 C    -6.30228     1.52041    -3.86016
 C    -6.88054     1.89332    -5.23121
 C    -8.41486     1.89296    -5.19264
 C    -8.99365     2.26083    -6.55909
 H    -0.37685    -1.03816    -0.00813
 H    -0.37743     0.45798     0.93226
 H     1.91004    -0.54502    -0.88597
 H     1.91323    -0.54942     0.88051
 H     3.18104     1.42480    -0.02264
 H     1.79395     1.94263     0.94125
 H     1.90500     1.77689    -2.14124
 H     1.90491     3.25785    -1.17809
 H    -0.38699     2.77618    -2.06548
 H    -0.38259     2.73994    -0.29934
 H    -0.17661     0.26854    -2.14776
 H    -2.43907    -0.25693    -0.93839
 H    -2.45834     1.42776    -0.41901
 H    -2.29219     0.46439    -3.35453
 H    -2.29430     2.15863    -2.86005
 H    -4.55531     0.14442    -2.23016
 H    -4.55382     1.84570    -1.75778
 H    -4.40873     0.81966    -4.67278
 H    -4.40044     2.52152    -4.20364
 H    -6.67130     0.52477    -3.55184
 H    -6.66298     2.22902    -3.09172
 H    -6.52228     1.18446    -6.00029
 H    -6.51108     2.88819    -5.54144
 H    -8.78553     0.89868    -4.88031
 H    -8.77434     2.60476    -4.42593
 H    -8.68120     1.54875    -7.33086
 H    -8.66641     3.25686    -6.87725
 H   -10.08886     2.26494    -6.53853
