    8
 
 N     0.00000     0.00000     0.00000
 C     1.31316     0.00000     0.00000
 O     1.83044     1.28858     0.00000
 C     0.73110     2.12516    -0.00011
 C    -0.40045     1.34989     0.00004
 H     0.96936     3.16098    -0.00033
 H    -1.44290     1.60568    -0.00006
 H     2.03697    -0.78762     0.00003
