   15
 
 O    -0.00368     0.00237     0.03377
 C     1.36027    -0.00142     0.02034
 C     2.11942     1.16703     0.01518
 C     3.50683     1.06375    -0.00805
 C     4.11480    -0.20199    -0.02294
 C     3.32728    -1.37040    -0.01341
 C     1.94526    -1.27261     0.00943
 N     5.51383    -0.30702     0.03699
 H    -0.36891     0.91674     0.05840
 H     1.64379     2.14287     0.03004
 H     4.11709     1.96266    -0.00306
 H     3.80302    -2.34783    -0.01210
 H     1.31180    -2.15731     0.01994
 H     5.91883    -1.17687    -0.24608
 H     6.04420     0.49226    -0.24634
