   15
 
 C    -0.00587    -0.00012    -0.01216
 C     2.78957     0.02231     0.04407
 C     0.71388     1.19425     0.03473
 C     0.70462    -1.19843    -0.02914
 C     2.10647     1.23826     0.06269
 C     2.09839    -1.19123    -0.00001
 H    -1.09519     0.00144    -0.03459
 F     0.04455     2.33705     0.05310
 H     0.16770    -2.14672    -0.06531
 H     2.64781     2.18765     0.09696
 H     2.65556    -2.13258    -0.01067
 C     4.26213    -0.02272     0.07150
 O     4.97077    -0.99296     0.15390
 O     4.80200     1.22154    -0.01456
 H     5.79234     1.21921    -0.00163
