   15
 
 C     0.00000     0.00000     0.00000
 C     1.39132     0.00000     0.00000
 C     2.06983     1.21749     0.00000
 C     1.36149     2.42098     0.00081
 C    -0.03660     2.39968     0.00175
 C    -0.72447     1.18913     0.00155
 I    -1.03624    -1.84279    -0.00040
 H     1.81263     4.33139    -0.87807
 H     1.82745     4.32164     0.89143
 C     2.08047     3.72592     0.00138
 H    -0.59271     3.33601     0.00276
 H    -1.81476     1.19631     0.00236
 H     3.17292     3.61219    -0.00879
 H     3.15867     1.22546    -0.00047
 H     1.96454    -0.92765    -0.00017
