   16
 
 C     0.01522     0.00755    -0.00049
 C     1.41671     0.00610    -0.03461
 C     2.07483     1.22607    -0.04054
 C     1.34043     2.41975    -0.01194
 C    -0.73738     1.18665     0.02861
 C    -0.05855     2.39923     0.02192
 O    -0.55628    -1.21798     0.00301
 H     1.95662    -0.93754    -0.05594
 H    -1.82109     1.15889     0.05474
 H     3.16871     1.26021    -0.06723
 H    -0.61388     3.34340     0.04399
 C     2.00895     3.72137    -0.01776
 O     1.50676     4.81736     0.00571
 O     3.36559     3.59742    -0.05428
 H     3.83210     4.46946    -0.05905
 H    -1.54428    -1.18009     0.02698
