   27
 
 C     0.00000     0.00000     0.00000
 C     1.39530     0.00000     0.00000
 C     2.08448     1.20865     0.00000
 C     1.39595     2.42633    -0.00635
 C    -0.70099     1.20861     0.00785
 C    -0.00388     2.41107     0.00844
 H    -1.79463     1.20171     0.01460
 H    -0.56277     3.34537     0.02366
 C    -0.77030    -1.24770    -0.00412
 O    -1.96858    -1.38206     0.00136
 O     0.03507    -2.34603    -0.01594
 C     2.14959     3.74390     0.02491
 C     2.31765     4.13096     1.50551
 H     1.94380    -0.94526     0.00049
 H     3.17300     1.19235     0.00779
 C     1.37530     4.84878    -0.71408
 C     3.53310     3.62180    -0.63549
 H    -0.46728    -3.19705    -0.01915
 H     2.87823     3.36732     2.05617
 H     1.34707     4.24553     2.00092
 H     2.85728     5.07802     1.60790
 H     1.12304     4.54029    -1.73488
 H     0.44578     5.11734    -0.20170
 H     1.97122     5.76611    -0.78545
 H     3.45296     3.22213    -1.65264
 H     4.20721     2.97282    -0.06694
 H     4.02315     4.60009    -0.70461
