   32
 
 C     0.00000     0.00000     0.00000
 C     1.39263     0.00000     0.00000
 C     2.09196     1.20603     0.00000
 C     1.39705     2.41445     0.00382
 C     0.00449     2.41952     0.00814
 C    -0.69704     1.21105     0.00420
 C    -2.86491     0.59932    -1.03734
 C    -2.16483     1.21506     0.00360
 C    -2.86258     1.83483     1.04352
 C    -4.25389     1.83736     1.04359
 C    -4.95370     1.21988     0.00384
 C    -4.25601     0.60161    -1.03725
 C    -8.50783     0.00000     0.00000
 C    -7.11547     0.00391    -0.00337
 C    -6.42138     1.21678     0.00608
 C    -7.12582     2.42323     0.01696
 C    -8.51853     2.41448     0.01592
 C    -9.21023     1.20423     0.00830
 H    -0.54830    -0.94036     0.00211
 H     1.93486    -0.94345    -0.00027
 H     3.17955     1.20388    -0.00266
 H     1.94287     3.35590     0.00301
 H    -0.54063     3.36173     0.00793
 H    -2.31901     0.12322    -1.85029
 H    -2.31521     2.30947     1.85638
 H    -4.80006     2.31395     1.85604
 H    -4.80398     0.12688    -1.84949
 H    -9.04771    -0.94472    -0.00354
 H    -6.56449    -0.93496    -0.00715
 H    -6.58366     3.36717     0.01920
 H    -9.06691     3.35437     0.02023
 H   -10.29785     1.19921     0.00870
