   25
 
 C     0.00000     0.00000     0.00000
 C     1.39413     0.00000     0.00000
 C     2.05570     1.22620     0.00000
 C     1.36490     2.44158     0.00723
 C    -0.02269     2.40894     0.00688
 C    -0.72286     1.19421    -0.00812
 C    -2.23861     1.19774     0.02352
 C    -2.79938     2.34145    -0.84337
 C    -2.67882     1.39366     1.48561
 C    -2.82843    -0.12024    -0.51076
 O     3.41245     1.32756    -0.00345
 H    -0.51878    -0.95837     0.00972
 H     1.94365    -0.93408     0.00137
 H     1.91534     3.37844     0.01509
 H    -0.57055     3.35143     0.02401
 H    -2.37736     2.31160    -1.85410
 H    -2.58125     3.32554    -0.41719
 H    -3.88815     2.26955    -0.93695
 H    -2.30130     0.58710     2.12387
 H    -2.29841     2.33638     1.89376
 H    -3.76948     1.40741     1.57390
 H    -2.43304    -0.35730    -1.50458
 H    -2.61010    -0.96382     0.15203
 H    -3.91876    -0.05786    -0.59669
 H     3.85049     0.44386    -0.00827
