   10
 
 P     0.00000     0.00000     0.00000
Cl     1.96604     0.00000     0.00000
Cl    -0.47339     1.90404     0.00000
 C    -0.32816    -0.44989    -1.86677
 C    -1.78123    -0.26490    -2.32712
 H     0.34303     0.14422    -2.53775
 H    -0.03189    -1.52468    -2.01282
 H    -2.50351    -0.87625    -1.76561
 H    -2.13151     0.77647    -2.28887
 H    -1.87043    -0.57737    -3.37953
