    9
 
 N     0.00000     0.00000     0.00000
 C     1.46948     0.00000     0.00000
 N     2.09656     1.32929     0.00000
 N     2.13466    -1.10173     0.01297
 F    -0.45908    -1.16490     0.56293
 F    -0.41595    -0.17901    -1.30001
 F     1.91377     1.87549     1.24965
 F     1.33876     2.18945    -0.75532
 F     3.49057    -0.98957     0.10060
