   12
 
 C     0.00000     0.00000     0.00000
 C     1.39571     0.00000     0.00000
 C     2.05256     1.23180     0.00000
 C     1.33982     2.43703    -0.00013
 C    -0.05681     2.42116    -0.00034
 C    -0.72779     1.19627    -0.00040
 F    -0.67869    -1.13049     0.00068
 F    -2.04438     1.16440    -0.00060
 F    -0.73416     3.54880    -0.00023
 F     1.98731     3.58391    -0.00010
 F     3.36952     1.29831     0.00005
 I     2.48182    -1.80891     0.00077
