   63
 
 C     0.00000     0.00000     0.00000
 C     1.53881     0.00000     0.00000
 C     1.53598     2.52254     0.00000
 C     0.00117     2.52017     0.02021
 C    -0.52437     1.25701     0.71566
 C    -0.56749    -1.28788     0.62398
 C    -0.18309    -1.48859     2.09445
 C    -0.77755    -2.79739     2.63133
 C    -0.38322    -3.00807     4.09860
 C    -0.96975    -4.32031     4.63365
 C    -0.56691    -4.53850     6.09745
 C    -1.14803    -5.85484     6.62854
 C    -0.73809    -6.07923     8.08943
 C    -1.31522    -7.39863     8.61725
 C    -0.89961    -7.62805    10.07576
 C    -1.47414    -8.94966    10.60108
 C    -1.05434    -9.18295    12.05780
 C    -1.62720   -10.50573    12.58165
 C    -1.20551   -10.74326    14.03764
 C    -1.77456   -12.06185    14.56195
 C     2.06879     1.26204    -0.69453
 H    -0.34561     0.03773    -1.06374
 H     1.91862    -0.90384    -0.50784
 H     1.92153    -0.04481     1.03582
 H     1.90787     3.42650    -0.51450
 H     1.92481     2.57439     1.03392
 H    -0.39001     2.57462    -1.01232
 H    -0.37331     3.42163     0.53757
 H    -0.20737     1.25416     1.77453
 H    -1.62851     1.25636     0.72495
 H    -0.22326    -2.15702     0.03063
 H    -1.67061    -1.27818     0.52961
 H    -0.53758    -0.63596     2.70281
 H     0.91719    -1.50214     2.20404
 H    -0.43033    -3.65068     2.01960
 H    -1.87885    -2.78211     2.53369
 H    -0.73511    -2.15770     4.71192
 H     0.71830    -3.01786     4.19740
 H    -0.62420    -5.16983     4.01553
 H    -2.07180    -4.30818     4.54242
 H    -0.91690    -3.69224     6.71747
 H     0.53511    -4.54667     6.19021
 H    -0.80318    -6.70039     6.00456
 H    -2.25054    -5.84468     6.54222
 H    -1.08624    -5.23622     8.71492
 H     0.36436    -6.08644     8.17705
 H    -0.97131    -8.24117     7.98870
 H    -2.41807    -7.38988     8.53496
 H    -1.24592    -6.78757    10.70566
 H     0.20316    -7.63508    10.15926
 H    -1.13113    -9.79011     9.96930
 H    -2.57723    -8.94181    10.52193
 H    -1.39885    -8.34402    12.69072
 H     0.04865    -9.19001    12.13799
 H    -1.28555   -11.34528    11.94816
 H    -2.73034   -10.49911    12.50468
 H    -1.54825    -9.90488    14.67301
 H    -0.10197   -10.75054    14.11619
 H    -1.47609   -12.23852    15.60095
 H    -1.42308   -12.91346    13.96892
 H    -2.86971   -12.06658    14.52837
 H     1.76933     1.26197    -1.75872
 H     3.17358     1.26262    -0.68723
