   13
 
 C     0.00000     0.00000     0.00000
 C     1.40605     0.00000     0.00000
 C     2.09305     1.20498     0.00000
 C     1.39891     2.41510    -0.00122
 C     0.00853     2.41617    -0.00306
 C    -0.69293     1.21526    -0.00265
Cl     2.22368    -1.47656     0.00043
Cl     3.78511     1.20460     0.00172
Cl     2.24963     3.87880    -0.00013
Cl    -0.83830     3.88122    -0.00616
Cl    -2.38707     1.20381    -0.00580
 O    -0.57668    -1.21503     0.00066
 H    -1.57436    -1.17711     0.00063
