   11
 
 C     0.00000     0.00000     0.00000
 C     1.56775     0.00000     0.00000
 C    -0.62909     1.43498     0.00000
 F    -0.44368    -0.68266     1.05498
 F    -0.44322    -0.68188    -1.05568
 F     2.06959    -1.22605     0.00268
 F    -1.95352     1.40301     0.00170
 F     2.06689     0.61317    -1.06438
 F     2.06770     0.61636     1.06193
 F    -0.26761     2.13824    -1.06423
 F    -0.26484     2.14009     1.06208
