   27
 
 C     0.00000     0.00000     0.00000
 C     1.52509     0.00000     0.00000
 C     2.25572     1.12014     0.00000
 C     3.76402     1.21402    -0.08284
 C     4.40394     0.37083    -1.24785
 C     1.59782     2.49700     0.09028
 C     1.34679     3.13936    -1.32761
 C     2.03781    -1.42985     0.00182
 C     4.41034     0.94599     1.32445
 F    -0.52863    -1.15163    -0.39977
 F    -0.52486     0.91051    -0.81469
 F    -0.51421     0.23011     1.20261
 F     4.11438     2.48301    -0.38567
 F     5.14108     1.13258    -2.04452
 F     3.49332    -0.19140    -2.03208
 F     5.20111    -0.60350    -0.83816
 F     2.32928     3.33814     0.82683
 F     0.44949     2.46198     0.76944
 F     0.21256     3.81865    -1.38548
 F     1.28895     2.22342    -2.28659
 F     2.31291     3.97680    -1.67524
 F     3.32977    -1.57179     0.27116
 F     1.85182    -2.03780    -1.16489
 F     1.42046    -2.17911     0.91047
 F     5.69366     0.62812     1.25628
 F     3.81267    -0.02164     2.00509
 F     4.33523     2.02433     2.09366
