   10
 
 C     0.00321     0.03251     0.16223
 C     1.44990     0.01971     0.16667
 C    -0.78443     1.12022     0.21070
 C     2.23471    -1.03609     0.44080
 F    -0.57167    -1.15971     0.10113
 F     2.02737     1.17360    -0.13475
 F    -2.09211     1.12001     0.19002
 F    -0.37396     2.35962     0.28452
 F     3.54248    -1.04232     0.42482
 F     1.82057    -2.23271     0.76786
