   23
 
 C     0.00000     0.00000     0.00000
 C     1.41118     0.00000     0.00000
 C     2.11044     1.19018     0.00000
 C     1.42753     2.42031    -0.00010
 C     0.04789     2.44277    -0.00022
 C    -0.67549     1.23518     0.00001
 C    -0.78583    -1.21348    -0.00008
 C    -2.19467    -1.09648     0.00002
 N    -2.83954     0.13894     0.00030
 C    -2.12481     1.22864    -0.00008
 C    -0.21901    -2.50394    -0.00015
 C    -1.02387    -3.62500    -0.00008
 C    -2.42596    -3.49929     0.00011
 C    -3.01122    -2.25193    -0.00012
 H     1.94944    -0.94694    -0.00002
 H     3.20018     1.18629     0.00002
 H     1.99674     3.34805    -0.00011
 H    -0.49181     3.38917    -0.00030
 H    -2.66476     2.18573     0.00001
 H     0.86488    -2.61455    -0.00016
 H    -0.57966    -4.61925    -0.00012
 H    -3.04212    -4.39730     0.00012
 H    -4.09482    -2.12525    -0.00003
