   24
 
 C     0.00000     0.00000     0.00000
 C     1.40856     0.00000     0.00000
 C     2.12658     1.24596     0.00000
 C    -0.70857     1.26257     0.00000
 C     2.11352    -1.22400     0.00000
 C    -0.67520    -1.24080     0.00000
 C     0.02572     2.46455     0.00000
 C     0.02567    -2.42879     0.00000
 C     1.46328     2.42793     0.00000
 C     1.43244    -2.42235     0.00000
 C    -2.11946     1.33284     0.00000
 H    -1.76457    -1.25930     0.00000
 H     3.21521     1.20727     0.00000
 H     3.20207    -1.20764     0.00000
 H    -0.50317    -3.38008     0.00000
 H     1.97207    -3.36705     0.00000
 C    -0.65136     3.70413     0.00000
 H     1.99750     3.37731     0.00000
 C    -2.02912     3.74738     0.00000
 C    -2.76788     2.55022     0.00000
 H    -0.06995     4.62457     0.00000
 H    -2.70289     0.41281     0.00000
 H    -3.85546     2.59458     0.00000
 H    -2.55415     4.70023     0.00000
