   13
 
 O     0.00000     0.00000     0.00000
 C     1.35942     0.00000     0.00000
 C     2.10695     1.17843     0.00000
 C     1.95229    -1.26780     0.00005
 C     3.49680     1.07318     0.00002
 C     3.33961    -1.34163     0.00014
 C     4.11162    -0.17690    -0.00019
 H    -0.37285     0.91394    -0.00007
 H     1.62506     2.14869    -0.00004
 H     1.32957    -2.15792     0.00006
 H     4.10442     1.97777     0.00009
 H     3.82838    -2.31575     0.00012
 H     5.19583    -0.24882    -0.00009
