   22
 
 O     0.00000     0.00000     0.00000
 C     1.36984     0.00000     0.00000
 C     2.19405     1.12160     0.00000
 S     1.55638     2.76057     0.00090
 C    -0.17602     2.45809     0.00816
 C    -0.70855     1.17226     0.00727
 C    -2.08998     0.94416     0.01296
 C    -2.94378     2.04034     0.01938
 C    -2.42599     3.33717     0.02021
 C    -1.04921     3.54683     0.01500
 C     3.57761     0.93844    -0.00159
 C     4.11111    -0.34794    -0.00353
 C     3.26999    -1.46254    -0.00349
 C     1.89001    -1.29993    -0.00119
 H    -2.47086    -0.07537     0.01201
 H    -4.02265     1.88537     0.02379
 H    -3.10228     4.18946     0.02527
 H    -0.66494     4.56926     0.01633
 H     4.25350     1.79649    -0.00149
 H     5.19044    -0.48514    -0.00504
 H     3.69655    -2.46555    -0.00509
 H     1.21499    -2.15366    -0.00084
