   23
 
 C    -0.02326    -0.01935     0.01650
 C     1.13205     0.65011     0.42705
 C     1.10344     2.03395     0.61096
 C    -0.07712     2.74177     0.39478
 C    -1.23121     2.07195    -0.00592
 C    -1.20153     0.69142    -0.19803
 C     2.39068    -0.11775     0.68167
 C     2.30080    -0.84472     2.04610
 C     3.60685    -1.59962     2.24304
 O     4.68786    -1.15938     2.52407
 O     3.41756    -2.92068     2.00453
 H    -0.00393    -1.09679    -0.13647
 H     2.00278     2.56459     0.91685
 H    -0.09669     3.82108     0.53799
 H    -2.15381     2.62537    -0.17172
 H    -2.10096     0.16794    -0.51737
 H     2.56592    -0.85680    -0.12901
 H     3.28029     0.54604     0.66076
 H     4.23131    -3.46934     2.12700
 N     2.14576     0.03494     3.21150
 H     1.43440    -1.56447     2.03931
 H     1.29091     0.56947     3.16378
 H     2.92882     0.66395     3.32653
