   25
 
 O     0.09743    -0.06969     0.38961
 C     1.29674    -0.08322     0.33042
 C     2.20823     1.07140     0.29099
 O     2.01349    -1.25389     0.29918
 C     1.30556    -2.43924     0.24771
 C     0.38991    -2.68249    -0.77342
 C    -0.21684    -3.93503    -0.82303
 C     0.08985    -4.90458     0.13192
 C     1.01518    -4.63472     1.14081
 C     1.63537    -3.38965     1.21267
 C     1.73676     2.28785     0.79226
 C     2.55268     3.41434     0.73865
 C     3.82932     3.32232     0.18394
 C     4.29618     2.10558    -0.31189
 C     3.48725     0.97238    -0.25699
 H     0.14680    -1.90926    -1.49793
 H    -0.93630    -4.15458    -1.61033
 H    -0.40070    -5.87465     0.09224
 H     1.25017    -5.39892     1.88025
 H     2.35132    -3.15505     1.99518
 H     0.73159     2.34841     1.21693
 H     2.19417     4.36667     1.12560
 H     4.46468     4.20633     0.13749
 H     5.29299     2.04086    -0.74369
 H     3.84924     0.01648    -0.64142
