   22
 
 C     0.00000     0.00000     0.00000
 C     1.36059     0.00000     0.00000
 C     2.10149     1.22609     0.00000
 C     1.46990     2.43124     0.00030
 C     0.03367     2.48212     0.00063
 C    -0.71225     1.24815    -0.00003
 N    -2.05929     1.25292    -0.00030
 C    -2.68976     2.44323     0.00003
 C    -4.12611     2.49367    -0.00038
 C    -4.75818     3.69843     0.00021
 C    -4.01701     4.92438     0.00135
 C    -2.65650     4.92552     0.00170
 C    -1.94397     3.67741     0.00088
 N    -0.59698     3.67237     0.00119
 H    -0.58907    -0.91877    -0.00006
 H     1.92035    -0.93569     0.00003
 H     3.19022     1.16510    -0.00017
 H     2.00998     3.37962     0.00039
 H    -4.66558     1.54496    -0.00114
 H    -5.84682     3.75947    -0.00010
 H    -4.57734     5.85983     0.00201
 H    -2.06778     5.84448     0.00264
