   23
 
 C     0.00000     0.00000     0.00000
 C     1.38941     0.00000     0.00000
 C     2.09617     1.20123     0.00000
 C     1.40794     2.41303     0.00013
 C     0.01611     2.42976     0.00004
 C    -0.69895     1.22259    -0.00025
 N    -2.09605     1.16404    -0.00067
 C    -2.95277     2.26908    -0.00385
 C    -4.33781     2.01440    -0.00613
 C    -5.23382     3.07635    -0.00973
 C    -4.77199     4.39128    -0.01132
 C    -3.40201     4.64711    -0.00904
 C    -2.49157     3.59429    -0.00465
 S    -0.77785     4.00241     0.00172
 H    -0.54228    -0.94136    -0.00009
 H     1.92844    -0.94751     0.00017
 H     3.18301     1.19458    -0.00017
 H     1.97742     3.34591     0.00024
 H    -2.52296     0.24390    -0.00112
 H    -4.70769     0.99295    -0.00545
 H    -6.30559     2.87713    -0.01139
 H    -5.47811     5.21746    -0.01423
 H    -3.05679     5.68412    -0.01047
