   19
 
 C     0.00882     0.02774     0.04351
 C     2.73531    -0.41107    -0.18851
 C     0.82230     0.98957    -0.54700
 C     0.56546    -1.16427     0.51660
 C     2.19577     0.78019    -0.67267
 C     1.92814    -1.39614     0.40653
 O     4.05011    -0.74950    -0.19604
 C     4.96908     0.07782    -0.90164
 C     4.86885    -0.17529    -2.39741
 H    -1.05925     0.20056     0.13692
 H     0.38516     1.91660    -0.91661
 H    -0.07699    -1.91598     0.97447
 H     2.81627     1.53814    -1.13529
 H     2.38042    -2.31563     0.76842
 H     5.93121    -0.27850    -0.47991
 H     4.83063     1.13768    -0.63154
 H     4.95972    -1.24744    -2.62066
 H     3.90200     0.15007    -2.80162
 H     5.65791     0.34812    -2.94808
