   12
 
 C     0.00000     0.00000     0.00000
 C     1.47700     0.00000     0.00000
 C     2.15986     1.13199     0.00000
 C     1.47100     2.43851     0.00000
 C    -0.00599     2.44323     0.00000
 C    -0.69246     1.31343     0.00000
 O    -0.63281    -1.04539     0.00000
 H    -0.46954     3.43407    -0.00000
 H     1.94267    -0.98984     0.00000
 H    -1.78524     1.26373    -0.00000
 H     3.25269     1.18056     0.00000
 O     2.09587     3.48867     0.00000
