   11
 
 C     0.00000     0.00000     0.00000
 C     1.52363     0.00000     0.00000
 C    -0.51760     1.40315     0.00000
 O     0.07862     2.44593    -0.00058
 O    -1.88082     1.38936     0.00072
 H    -0.39803    -0.54856     0.88247
 H    -0.39783    -0.54826    -0.88275
 H     1.92464    -1.02001     0.00125
 H     1.92827     0.51726    -0.88109
 H     1.92843     0.51954     0.87970
 H    -2.28839     2.28860     0.00073
