   26
 
 C     0.00000     0.00000     0.00000
 C     1.41401     0.00000     0.00000
 C    -0.70694     1.22465     0.00000
 C     0.00508     2.42829     0.00004
 C     1.39737     2.42013     0.00017
 C     2.10042     1.21853     0.00026
 C     2.10999    -1.26388    -0.00005
 C     1.43294    -2.43690    -0.00015
 C    -0.00961    -2.46588    -0.00023
 C    -0.71653    -1.24125    -0.00009
 C    -2.14953     1.19550    -0.00004
 C    -2.82674     0.02261    -0.00017
 C    -2.13063    -1.24124    -0.00028
 C    -2.81699    -2.45962    -0.00055
 C    -2.11382    -3.66134    -0.00070
 C    -0.72170    -3.66949    -0.00053
 H    -0.53249     3.37463    -0.00001
 H     1.94179     3.36349     0.00018
 H     3.18883     1.22598     0.00034
 H     3.19923    -1.23845    -0.00001
 H     1.95562    -3.39285    -0.00021
 H    -2.67232     2.15140     0.00004
 H    -3.91596    -0.00255    -0.00019
 H    -3.90535    -2.46733    -0.00065
 H    -2.65863    -4.60443    -0.00096
 H    -0.18407    -4.61588    -0.00065
