   11
 
 N     0.00000     0.00000     0.00000
 C     1.34627     0.00000     0.00000
 C     2.10084     1.18077     0.00000
 C     1.42737     2.40086     0.00000
 C     0.03398     2.41011     0.00000
 C    -0.64222     1.18279     0.00000
 H     1.98461     3.33698     0.00000
 H    -0.51897     3.34426    -0.00000
 H    -1.73705     1.13002    -0.00000
 H     3.18573     1.14165     0.00000
 H     1.82158    -0.98760    -0.00000
