   12
 
 C     0.00000     0.00000     0.00000
 C     1.38989     0.00000     0.00000
 C     2.09279     1.20332     0.00000
 C     1.37599     2.39863     0.00037
 C    -0.01348     2.38300     0.00059
 N    -0.69475     1.18735     0.00011
 O    -1.93972     1.18048     0.00006
 H    -0.59027    -0.91925    -0.00010
 H     1.92275    -0.95239    -0.00010
 H     3.17902     1.21003    -0.00021
 H     1.89839     3.35687     0.00052
 H    -0.61455     3.29511     0.00099
