   16
 
 C     0.00000     0.00000     0.00000
 C     1.37092     0.00000     0.00000
 C     2.10109     1.21740     0.00000
 C     1.45671     2.42747     0.00026
 C     0.03511     2.45995     0.00006
 C    -0.69773     1.23904    -0.00083
 N    -2.07502     1.25099    -0.00165
 C    -2.68343     2.41917    -0.00147
 C    -1.94062     3.65610    -0.00050
 N    -0.62361     3.66959    -0.00023
 H    -0.58186    -0.92339    -0.00029
 H     1.92413    -0.93996    -0.00021
 H     3.19090     1.17152    -0.00010
 H     1.99786     3.37527     0.00060
 H    -3.77896     2.42354    -0.00204
 H    -2.46095     4.62031     0.00004
