   12
 
 C     0.27832    -0.30312    -2.58374
 H    -0.09368    -1.18112    -3.11974
 H     1.33932    -1.25712    -1.24474
 H     1.11432     0.12588    -3.14274
 H    -0.51868     0.43488    -2.53774
 O     0.63432    -0.60712    -1.24074
 C    -0.28050     0.31118     2.96018
 H    -1.15562    -0.08565     3.46628
 H    -1.58600     1.48656     1.32757
 H     0.05385     1.22580     3.44346
 H     0.51853    -0.42457     3.01233
 S    -0.60597     0.57999     1.18529
