   12
 
 C     2.21120    -0.88324     0.97875
 C     2.70720    -2.03124     1.49875
 C     1.63620    -2.98224     1.45975
 C     0.57720    -2.33424     0.91875
 H    -0.43180    -2.62624     0.69175
 H     1.65920    -4.00524     1.79075
 H     2.62820     0.09076     0.80275
 H     3.70620    -2.18724     1.86475
 O     0.90920    -1.04924     0.61875
 C     0.02914     0.60497    -1.92151
Cl    -0.70724     0.81618    -0.48131
 N     0.54874     0.45533    -2.93876
