   10
 
 C    -1.39018     0.00000    -1.40000
 F     0.00000     0.00000    -1.40000
 H    -1.73997     1.03111    -1.40000
 H    -1.74059    -0.51576    -2.29280
 H    -1.74029    -0.51514    -0.50638
 C     1.39018    -0.00009     1.00996
 F     0.00000     0.00000     1.00996
 H     1.74003     1.03100     1.00996
 H     1.74056    -0.51587     1.90276
 H     1.74026    -0.51525     0.11634
