   15
 
 C    -1.79550     0.00000    -1.78000
Cl     0.00000     0.00000    -1.78000
 H    -2.13568     1.03004    -1.78000
 H    -2.13621    -0.51378    -2.67122
 H    -2.13603    -0.51368    -0.88849
 C     0.00000     0.00000     2.33893
 O     0.00000     0.00000     1.13027
 C     0.83355     0.98377     3.13464
 C    -0.83154    -0.98219     3.13631
 H     1.55338     0.44588     3.75603
 H    -0.19528    -1.56169     3.80820
 H     0.19959     1.55913     3.81219
 H     1.36101     1.65485     2.46429
 H    -1.36290    -1.65283     2.46599
 H    -1.54787    -0.44693     3.76237
