    9
 
 C    -1.95909     0.00000    -1.90000
Br     0.00000     0.00000    -1.90000
 H    -2.28753     1.03205    -1.90000
 H    -2.28692    -0.51574    -2.79304
 H    -2.28720    -0.51646    -1.00593
 N     0.00000     0.00000     1.39595
 H     0.91242     0.23263     1.76914
 H    -0.25437    -0.90564     1.76885
 H    -0.65697     0.67301     1.76840
