   13
 
 C    -1.48555    -1.16449     0.02777
 H    -0.62955    -0.49349     0.01177
 H    -1.45255    -1.77249     0.92977
 H    -2.40355    -0.58249     0.01677
 H    -1.45555    -1.81149    -0.84623
 C     1.36209     2.75860    -0.64315
 C     2.83357     0.71086     0.49876
 H     2.35201     3.19954    -0.54568
 H     3.06931    -0.25964     0.91669
 H     3.65268     1.41877     0.45850
 H     0.64294     3.36597    -0.09164
 H     1.06080     2.78059    -1.69207
 P     1.29093     1.01193    -0.02413
