    9
 
 C     0.27832    -0.30312    -2.58374
 H    -0.09368    -1.18112    -3.11974
 H     1.33932    -1.25712    -1.24474
 H     1.11432     0.12588    -3.14274
 H    -0.51868     0.43488    -2.53774
 O     0.63432    -0.60712    -1.24074
 C     0.63407    -0.54439     2.27359
 I    -0.57332     0.54874     1.12142
 N     1.33267    -1.17578     2.93969
