    8
 
 C     0.00000     0.00000    -1.70000
 C    -1.19588     0.00000    -1.70000
 H     1.06145     0.00071    -1.70000
 H    -2.25730     0.00028    -1.70011
 C     0.00000     0.00000     1.28962
 C     1.19588    -0.00099     1.28962
 H    -1.06145     0.00160     1.28962
 H     2.25730    -0.00160     1.28973
