   15
 
 H     0.88017    -2.75419     0.12263
 H     0.11717    -2.39519    -1.62137
 S     0.32917    -1.69919    -0.49437
 C    -0.21481     1.10886     0.32262
 C    -1.02613     0.65085     1.35663
 C    -0.47748     0.39298     2.60829
 C     0.88133     0.59233     2.82613
 C     1.69198     1.05037     1.79336
 C     1.14361     1.30893     0.54104
 H    -0.64166     1.30973    -0.65097
 H    -2.08266     0.49564     1.18568
 H    -1.10832     0.03611     3.41112
 H     1.30818     0.39146     3.79971
 H     2.74918     1.20555     1.96307
 H     1.77308     1.66488    -0.26331
