    8
 
 C    -1.39018     0.00000    -1.40000
 F     0.00000     0.00000    -1.40000
 H    -1.73997     1.03111    -1.40000
 H    -1.74059    -0.51576    -2.29280
 H    -1.74029    -0.51514    -0.50638
 H    -0.96829     0.00003     2.35122
 H     0.96887    -0.00003     2.35178
 S     0.00000     0.00000     1.42400
