   14
 
 C    -1.49806     0.00000    -1.60000
 H    -1.80852     0.01276    -2.64146
 H    -1.83572     0.89668    -1.09422
 H    -1.83494    -0.90925    -1.11613
 N     0.00000     0.00000    -1.60000
 O     0.55588    -1.08312    -1.62666
 O     0.55598     1.08362    -1.60000
 N     0.00000     0.00000     0.84864
 C     1.40242     0.00013     1.26654
 H    -0.48446    -0.81198     1.20647
 H     1.89998     0.87807     0.85486
 H     1.89992    -0.87644     0.85119
 H     1.56480    -0.00240     2.35103
 H    -0.48443     0.81193     1.20677
