   18
 
 C    -0.17545    -2.00747     1.57781
 C    -0.82945    -2.99347     2.30681
 C    -2.21545    -3.05347     2.24581
 C    -2.88545    -2.12647     1.45881
 C    -2.13845    -1.17947     0.76781
 N    -0.80745    -1.11247     0.81881
 H     0.90655    -1.93347     1.60381
 H    -0.26345    -3.69347     2.90581
 H    -2.76045    -3.80647     2.79881
 H    -3.96345    -2.13347     1.37981
 H    -2.63045    -0.44147     0.14481
 C     0.07043     1.56658     0.64526
 H     0.53815     2.49779     0.33660
 H     0.48909     1.22702     1.58510
 H    -1.00700     1.67773     0.67931
 N     0.40098     0.55245    -0.40662
 O    -0.36694     0.45617    -1.34678
 O     1.42810    -0.08555    -0.26056
