   10
 
 C    -1.79550     0.00000    -1.78000
Cl     0.00000     0.00000    -1.78000
 H    -2.13568     1.03004    -1.78000
 H    -2.13621    -0.51378    -2.67122
 H    -2.13603    -0.51368    -0.88849
 C     1.95909    -0.00059     1.43006
Br     0.00000     0.00000     1.43006
 H     2.28783     1.03137     1.43006
 H     2.28676    -0.51642     2.32310
 H     2.28704    -0.51714     0.53600
