    9
 
 C    -1.70000     0.00000     0.00000
 H    -2.78777     0.00000     0.00000
 H    -1.33765     1.02619     0.00000
 H    -1.33677    -0.51227     0.88725
 H    -1.33735    -0.51198    -0.88868
 C     1.30119    -0.00044     0.00033
 C     1.30169     0.96027    -0.71183
 H     1.30074    -0.85273     0.63300
 H     1.30225     1.81313    -1.34369
