   23
 
 C     2.68020     0.70509    -1.87918
 C     2.39620     2.29409     0.44782
 C     3.25720    -0.39491     0.66482
 H     2.09520     1.39509    -2.48718
 H     2.15820     2.36109     1.50882
 H     3.22920    -1.41791     0.28982
 H     2.63020    -0.27491    -2.35318
 H     3.72020     1.03909    -1.86918
 H     1.80020     3.04309    -0.07318
 H     3.45420     2.52509     0.30782
 H     3.05520    -0.42891     1.73582
 H     4.25920     0.01009     0.50882
 P     1.94920     0.60909    -0.17918
 C    -2.63227    -0.82254     0.24198
 C    -3.61831    -0.12109     1.13166
 C    -3.18226    -2.00370    -0.50463
 H    -4.00433    -0.81777     1.88080
 H    -3.58152    -2.73882     0.20109
 H    -4.48158     0.20990     0.54789
 H    -3.17156     0.73179     1.63185
 H    -2.42663    -2.47553    -1.12565
 H    -4.02305    -1.69213    -1.13072
 S    -1.08552    -0.33921     0.09979
