   11
 
 C    -1.95909     0.00000    -1.90000
Br     0.00000     0.00000    -1.90000
 H    -2.28753     1.03205    -1.90000
 H    -2.28692    -0.51574    -2.79304
 H    -2.28720    -0.51646    -1.00593
 C     1.15762    -0.00014     1.98786
 H     1.21138    -0.89066     2.62083
 H    -0.78050     0.00010     1.71868
 H     1.20941     0.88924     2.62168
 H     2.01776     0.00154     1.32293
 O     0.00000     0.00000     1.16158
