   16
 
 C     0.17069    -0.41562    -3.27212
 H    -0.26031    -1.29362    -3.74412
 H     1.49569    -1.71262    -1.75112
 H     1.03669    -0.07162    -3.83212
 H    -0.57431     0.37638    -3.25812
 S     0.59569    -0.74162    -1.52812
 C    -0.77920     0.97008     1.99886
 O    -0.37920     0.47210     0.97276
 C     0.17415     1.47104     3.06466
 C    -2.25741     1.12536     2.28651
 H     0.01075     0.92610     3.99737
 H    -2.51807     0.62294     3.22017
 H    -0.01339     2.52523     3.27803
 H     1.20120     1.33767     2.74013
 H    -2.84280     0.70901     1.47079
 H    -2.50664     2.18035     2.41480
