    9
 
 H     2.63000     0.71779    -1.38916
 H     2.35200     1.93979     0.25284
 H     3.01700     0.00079     0.50884
 P     1.94000     0.64479    -0.15216
 C    -1.87727     1.26784     0.88935
Br    -1.36630    -0.45411     0.10717
 H    -2.15987     1.92649     0.07736
 H    -2.70948     1.09022     1.55782
 H    -1.01821     1.65231     1.42594
