   17
 
 C    -1.79550     0.00000    -1.78000
Cl     0.00000     0.00000    -1.78000
 H    -2.13568     1.03004    -1.78000
 H    -2.13621    -0.51378    -2.67122
 H    -2.13603    -0.51368    -0.88849
 C     0.00000     0.00000     1.23159
 C     0.69586    -1.20540     1.23159
 C     2.08659    -1.20495     1.23159
 C     2.78135    -0.00043     1.23112
 C     2.08635     1.20395     1.23162
 C     0.69499     1.20417     1.23203
 H    -1.08186    -0.00035     1.23188
 H     0.15427    -2.14149     1.23134
 H     2.62674    -2.14201     1.23058
 H     3.86321    -0.00008     1.23083
 H     2.62708     2.14106     1.23138
 H     0.15311     2.14026     1.23201
