   17
 
 C    -1.39018     0.00000    -1.40000
 F     0.00000     0.00000    -1.40000
 H    -1.73997     1.03111    -1.40000
 H    -1.74059    -0.51576    -2.29280
 H    -1.74029    -0.51514    -0.50638
 C     0.00000     0.00000     1.38690
 C     0.69620    -1.20520     1.38690
 C     2.08693    -1.20436     1.38690
 C     2.78135     0.00036     1.38643
 C     2.08601     1.20454     1.38692
 C     0.69465     1.20437     1.38734
 H    -1.08186    -0.00066     1.38719
 H     0.15488    -2.14144     1.38664
 H     2.62735    -2.14127     1.38588
 H     3.86321     0.00101     1.38614
 H     2.62647     2.14180     1.38668
 H     0.15251     2.14031     1.38732
