   14
 
 C     0.05261    -1.10658    -1.49590
 C     0.08561    -1.81758    -2.45690
 H     0.02261    -0.47558    -0.64290
 H     0.11461    -2.44858    -3.30990
 C    -0.05762     1.21194     1.63833
 O    -0.02346     0.49343     0.66703
 C     0.68547     2.53179     1.67829
 C    -0.84384     0.84056     2.87765
 H     1.42180     2.52110     2.48532
 H    -0.18951     0.82067     3.75146
 H    -0.00443     3.35073     1.89133
 H     1.18562     2.70804     0.73133
 H    -1.31001    -0.13261     2.74701
 H    -1.61176     1.59095     3.07459
