   16
 
 N     0.90761    -0.90314    -0.95947
 C     2.25361    -0.33014    -0.92247
 H     0.54061    -0.90514    -1.90147
 H     2.61561    -0.32914     0.10553
 H     2.20961     0.70886    -1.24947
 H     2.99661    -0.84714    -1.54147
 H     0.91461    -1.86414    -0.64547
 C    -1.27543     1.99229     0.52397
 C    -1.99720     2.45996     1.57023
 C    -1.93338     1.44827     2.58284
 C    -1.17759     0.44885     2.06902
 H    -0.85485    -0.50403     2.44683
 H    -2.38989     1.46937     3.55637
 H    -1.03679     2.38658    -0.44615
 H    -2.51129     3.40307     1.62068
 O    -0.76666     0.76289     0.81046
