   17
 
 C    -0.17545    -2.00747     1.57781
 C    -0.82945    -2.99347     2.30681
 C    -2.21545    -3.05347     2.24581
 C    -2.88545    -2.12647     1.45881
 C    -2.13845    -1.17947     0.76781
 N    -0.80745    -1.11247     0.81881
 H     0.90655    -1.93347     1.60381
 H    -0.26345    -3.69347     2.90581
 H    -2.76045    -3.80647     2.79881
 H    -3.96345    -2.13347     1.37981
 H    -2.63045    -0.44147     0.14481
 C     0.99848     2.71915    -0.35771
 H     0.57155     3.35185    -1.13027
 H     1.36256     0.88859    -1.86362
 H     2.06086     2.92162    -0.24705
 H     0.50124     2.93319     0.58538
 S     0.69236     0.95390    -0.70210
