    9
 
 C    -2.15572     0.00000    -2.10000
 I     0.00000     0.00000    -2.10000
 H    -2.47912     1.03349    -2.10000
 H    -2.47994    -0.51586    -2.99503
 H    -2.47988    -0.51635    -1.20631
 C     0.00000     0.00000     1.35078
 C     1.19588    -0.00066     1.35078
 H    -1.06145     0.00130     1.35078
 H     2.25730    -0.00096     1.35089
