    9
 
 C    -1.39018     0.00000    -1.40000
 F     0.00000     0.00000    -1.40000
 H    -1.73997     1.03111    -1.40000
 H    -1.74059    -0.51576    -2.29280
 H    -1.74029    -0.51514    -0.50638
 N     0.00000     0.00000     1.44220
 H     0.91243     0.23259     1.81539
 H    -0.25441    -0.90563     1.81510
 H    -0.65694     0.67304     1.81465
