   18
 
 C     2.68020     0.70509    -1.87918
 C     2.39620     2.29409     0.44782
 C     3.25720    -0.39491     0.66482
 H     2.09520     1.39509    -2.48718
 H     2.15820     2.36109     1.50882
 H     3.22920    -1.41791     0.28982
 H     2.63020    -0.27491    -2.35318
 H     3.72020     1.03909    -1.86918
 H     1.80020     3.04309    -0.07318
 H     3.45420     2.52509     0.30782
 H     3.05520    -0.42891     1.73582
 H     4.25920     0.01009     0.50882
 P     1.94920     0.60909    -0.17918
 C    -0.96914    -0.93738     1.80245
Cl    -1.29080    -0.40335     0.11866
 H    -1.16843    -0.10396     2.46760
 H    -1.62571    -1.76968     2.02723
 H     0.06932    -1.23985     1.87126
