   13
 
 C    -1.49806     0.00000    -1.60000
 H    -1.80852     0.01276    -2.64146
 H    -1.83572     0.89668    -1.09422
 H    -1.83494    -0.90925    -1.11613
 N     0.00000     0.00000    -1.60000
 O     0.55588    -1.08312    -1.62666
 O     0.55598     1.08362    -1.60000
 C     1.15762    -0.00030     1.63398
 H     1.21126    -0.89082     2.26695
 H    -0.78050     0.00020     1.36480
 H     1.20952     0.88908     2.26780
 H     2.01776     0.00127     0.96905
 O     0.00000     0.00000     0.80770
