    9
 
 H    -1.00458    -0.48631     1.93896
 H    -0.43058     0.92569     1.99096
 O    -0.51858     0.15869     1.41996
 C     0.41304    -1.55186    -2.58781
 H     1.39998    -1.92184    -2.84951
 H     1.19858     0.68226    -2.20978
 H    -0.13684    -1.27429    -3.48363
 H    -0.13162    -2.33961    -2.07275
 S     0.51681    -0.15815    -1.41511
