   13
 
 C    -1.79550     0.00000    -1.78000
Cl     0.00000     0.00000    -1.78000
 H    -2.13568     1.03004    -1.78000
 H    -2.13621    -0.51378    -2.67122
 H    -2.13603    -0.51368    -0.88849
 C     1.46070     0.00049     2.67818
 C    -1.30472    -0.00044     2.55617
 H     1.17393    -0.00545     3.72775
 H    -2.30286    -0.00051     2.13688
 H    -1.24748    -0.00125     3.63804
 H     2.07388     0.88056     2.47881
 H     2.07991    -0.87402     2.47008
 P     0.00000     0.00000     1.53563
