   16
 
 C     0.66656     1.61971    -3.04274
 C     0.20356     3.22371    -0.83474
 H     0.76756     2.62371    -3.44974
 H    -0.01444     3.50671     0.18726
 H     0.35956     4.04171    -1.52774
 H    -0.12144     1.09171    -3.58174
 H     1.59356     1.06871    -3.21174
 P     0.27656     1.61671    -1.22974
 C    -0.60338    -1.23945     2.75311
 C    -0.13684    -2.84347     0.54587
 H    -0.69258    -2.24353     3.16265
 H     0.08191    -3.12648    -0.47597
 H    -0.29130    -3.66148     1.23920
 H    -1.53630    -0.69934     2.92101
 H     0.17892    -0.70047     3.29070
 P    -0.21151    -1.23646     0.94051
