   21
 
 C    -0.17545    -2.00747     1.57781
 C    -0.82945    -2.99347     2.30681
 C    -2.21545    -3.05347     2.24581
 C    -2.88545    -2.12647     1.45881
 C    -2.13845    -1.17947     0.76781
 N    -0.80745    -1.11247     0.81881
 H     0.90655    -1.93347     1.60381
 H    -0.26345    -3.69347     2.90581
 H    -2.76045    -3.80647     2.79881
 H    -3.96345    -2.13347     1.37981
 H    -2.63045    -0.44147     0.14481
 C     1.46253     2.01501    -1.48310
 O     0.85257     1.17464    -0.86457
 C     2.50166     2.89466    -0.81814
 C     1.22823     2.24400    -2.96115
 H     2.20767     3.94395    -0.89666
 H     0.94341     3.28190    -3.14482
 H     3.46352     2.79757    -1.32549
 H     2.60735     2.62337     0.22741
 H     0.44719     1.58039    -3.32312
 H     2.14878     2.06506    -3.51986
