   13
 
 C     2.71040    -1.25299     1.25435
 C     3.06940    -2.47199     1.75335
 C     2.00440    -3.41299     1.71335
 C     0.86040    -2.88899     1.18535
 H    -0.08960    -3.37399     1.03735
 H     2.08540    -4.43199     2.06135
 H     3.31340    -0.36599     1.16535
 H     4.05540    -2.69099     2.13535
 S     1.07340    -1.24499     0.73335
 N    -0.75422     0.87479    -0.51529
 H    -0.38058     1.22073    -1.39085
 H    -0.87228     1.67233     0.09621
 H    -1.67602     0.50524    -0.70761
