    9
 
 H    -1.00458    -0.48631     1.93896
 H    -0.43058     0.92569     1.99096
 O    -0.51858     0.15869     1.41996
 C     0.46519    -0.14235    -1.27377
 C    -0.03321    -1.36895    -1.31871
 H    -0.11311     0.71890    -1.58122
 H     1.47245     0.04965    -0.92863
 H    -1.04046    -1.56094    -1.66385
 H     0.54458    -2.22993    -1.01208
