   12
 
 C    -1.49806     0.00000    -1.60000
 H    -1.80852     0.01276    -2.64146
 H    -1.83572     0.89668    -1.09422
 H    -1.83494    -0.90925    -1.11613
 N     0.00000     0.00000    -1.60000
 O     0.55588    -1.08312    -1.62666
 O     0.55598     1.08362    -1.60000
 C     2.15572    -0.00054     1.45472
 I     0.00000     0.00000     1.45472
 H     2.47938     1.03287     1.45472
 H     2.47981    -0.51648     2.34975
 H     2.47975    -0.51697     0.56103
