   19
 
 C     2.71040    -1.25299     1.25435
 C     3.06940    -2.47199     1.75335
 C     2.00440    -3.41299     1.71335
 C     0.86040    -2.88899     1.18535
 H    -0.08960    -3.37399     1.03735
 H     2.08540    -4.43199     2.06135
 H     3.31340    -0.36599     1.16535
 H     4.05540    -2.69099     2.13535
 S     1.07340    -1.24499     0.73335
 C    -1.33358     1.54676    -0.91111
 O    -0.61282     0.71078    -0.41868
 C    -1.51192     1.65964    -2.41152
 C    -2.10429     2.53525    -0.06207
 H    -1.17997     2.64263    -2.75379
 H    -1.85052     3.55877    -0.34507
 H    -2.56739     1.57287    -2.67697
 H    -0.94038     0.88656    -2.91514
 H    -1.87935     2.37970     0.98990
 H    -3.17672     2.41777    -0.22846
