   11
 
 H     2.63000     0.71779    -1.38916
 H     2.35200     1.93979     0.25284
 H     3.01700     0.00079     0.50884
 P     1.94000     0.64479    -0.15216
 N    -1.29412    -0.43012     0.10150
 C    -2.05542     0.67120     0.69220
 H    -1.35146    -1.25951     0.67673
 H    -1.96313     1.55268     0.05793
 H    -1.62489     0.92499     1.66102
 H    -3.12359     0.47192     0.83982
 H    -1.66158    -0.67759    -0.80728
