   12
 
 N     0.90761    -0.90314    -0.95947
 C     2.25361    -0.33014    -0.92247
 H     0.54061    -0.90514    -1.90147
 H     2.61561    -0.32914     0.10553
 H     2.20961     0.70886    -1.24947
 H     2.99661    -0.84714    -1.54147
 H     0.91461    -1.86414    -0.64547
 C    -0.74350     0.73887     0.78524
 H    -1.36090     1.35261     1.43744
 H     0.25465     0.64977     1.20963
 H    -1.18616    -0.24937     0.69034
 H    -0.67942     1.20359    -0.19625
