   14
 
 C    -1.39018     0.00000    -1.40000
 F     0.00000     0.00000    -1.40000
 H    -1.73997     1.03111    -1.40000
 H    -1.74059    -0.51576    -2.29280
 H    -1.74029    -0.51514    -0.50638
 C    -0.24829    -1.06461     1.96459
 C    -0.16178    -0.69758     3.26541
 C     0.16396     0.69772     3.26537
 C     0.24823     1.06434     1.96439
 H     0.46538     1.99349     1.47001
 H     0.31327     1.33323     4.12004
 H    -0.46569    -1.99288     1.47003
 H    -0.30973    -1.33373     4.11964
 O     0.00000     0.00000     1.15383
