   14
 
 C     0.00000     0.00000    -1.70000
 C    -1.32475     0.00000    -1.70000
 H     0.56944     0.92003    -1.70000
 H     0.56843    -0.92056    -1.70118
 H    -1.89318     0.92056    -1.69882
 H    -1.89416    -0.91920    -1.70055
 C     1.46070     0.00065     2.74968
 C    -1.30472    -0.00058     2.62767
 H     1.17393    -0.00532     3.79924
 H    -2.30286    -0.00075     2.20837
 H    -1.24748    -0.00138     3.70953
 H     2.07378     0.88078     2.55030
 H     2.08000    -0.87380     2.54157
 P     0.00000     0.00000     1.60713
