   14
 
 H     0.34198    -0.55666     0.46172
 H     0.65898    -1.07266     0.88972
 C    -0.59376     0.96649    -0.80166
 C    -1.85199     0.51419    -0.41505
 C    -2.47331     1.05995     0.70310
 C    -1.83718     2.05683     1.43462
 C    -0.58034     2.50920     1.04826
 C     0.04161     1.96389    -0.07053
 H    -0.11056     0.54215    -1.67164
 H    -2.34535    -0.26162    -0.98452
 H    -3.45066     0.70731     1.00359
 H    -2.32038     2.48117     2.30460
 H    -0.08559     3.28494     1.61747
 H     1.01940     2.31455    -0.37196
