   12
 
 H    -1.00458    -0.48631     1.93896
 H    -0.43058     0.92569     1.99096
 O    -0.51858     0.15869     1.41996
 C     1.94925     0.23023    -2.04397
 C     1.92126    -0.11223    -3.36525
 C     0.67898    -0.68364    -3.75451
 C    -0.20909    -0.76288    -2.72148
 H    -1.21432    -1.14888    -2.73358
 H     0.45644    -1.02029    -4.75610
 H     2.75579     0.67688    -1.48871
 H     2.75455     0.03670    -4.03572
 S     0.46278    -0.14161    -1.26717
