   18
 
 C     2.03699     0.03792    -2.75531
 C     1.52599     0.35192    -4.13231
 C     3.50699    -0.25908    -2.67831
 H     1.71399    -0.49308    -4.80031
 H     3.75199    -1.10408    -3.32931
 H     2.07299     1.20092    -4.55131
 H     0.46399     0.57392    -4.12531
 H     3.81999    -0.48508    -1.66331
 H     4.08099     0.59292    -3.05331
 S     1.06999     0.01992    -1.44731
 C    -0.83002     1.17340     2.52075
 C    -2.00776    -1.09927     1.46703
 H    -1.57969     0.92265     3.26839
 H    -2.20996    -1.91526     0.78484
 H    -2.62444    -1.06464     2.35710
 H    -1.01926     2.18065     2.14674
 H     0.15520     1.18698     2.99048
 P    -0.81123    -0.01510     1.09730
