    8
 
 C    -1.79550     0.00000    -1.78000
Cl     0.00000     0.00000    -1.78000
 H    -2.13568     1.03004    -1.78000
 H    -2.13621    -0.51378    -2.67122
 H    -2.13603    -0.51368    -0.88849
 C     1.99505    -0.00094     1.53701
 I     0.00000     0.00000     1.53701
 N     3.14847    -0.00068     1.53701
