   15
 
 C    -1.95909     0.00000    -1.90000
Br     0.00000     0.00000    -1.90000
 H    -2.28753     1.03205    -1.90000
 H    -2.28692    -0.51574    -2.79304
 H    -2.28720    -0.51646    -1.00593
 C     0.00000     0.00000     2.33467
 O     0.00000     0.00000     1.12602
 C     0.83322     0.98405     3.13039
 C    -0.83121    -0.98246     3.13206
 H     1.55323     0.44639     3.75178
 H    -0.19477    -1.56176     3.80395
 H     0.19908     1.55920     3.80793
 H     1.36046     1.65530     2.46004
 H    -1.36235    -1.65328     2.46173
 H    -1.54772    -0.44744     3.75812
