   11
 
 C    -1.79550     0.00000    -1.78000
Cl     0.00000     0.00000    -1.78000
 H    -2.13568     1.03004    -1.78000
 H    -2.13621    -0.51378    -2.67122
 H    -2.13603    -0.51368    -0.88849
 C     0.00000     0.00000     1.33773
 C     1.32475    -0.00069     1.33773
 H    -0.56895     0.92033     1.33773
 H    -0.56892    -0.92026     1.33891
 H     1.89367     0.91957     1.33655
 H     1.89368    -0.92020     1.33829
