   17
 
 C    -1.48555    -1.16449     0.02777
 H    -0.62955    -0.49349     0.01177
 H    -1.45255    -1.77249     0.92977
 H    -2.40355    -0.58249     0.01677
 H    -1.45555    -1.81149    -0.84623
 C     1.04780     0.82135    -0.01959
 C     0.94757     0.91619    -1.40456
 C     0.15928     1.90814    -1.97795
 C    -0.52876     2.80444    -1.16751
 C    -0.42837     2.71018     0.21618
 C     0.36043     1.71826     0.79043
 H     1.66124     0.04988     0.42645
 H     1.48273     0.21807    -2.03370
 H     0.08102     1.98067    -3.05427
 H    -1.14219     3.57591    -1.61354
 H    -0.96368     3.40772     0.84661
 H     0.43910     1.64354     1.86659
