    8
 
 C    -1.48555    -1.16449     0.02777
 H    -0.62955    -0.49349     0.01177
 H    -1.45255    -1.77249     0.92977
 H    -2.40355    -0.58249     0.01677
 H    -1.45555    -1.81149    -0.84623
 H     2.48573     0.82797     0.36357
 H     1.38846     2.20960    -0.43623
 S     1.20738     0.94644    -0.02257
