   25
 
 C     2.68020     0.70509    -1.87918
 C     2.39620     2.29409     0.44782
 C     3.25720    -0.39491     0.66482
 H     2.09520     1.39509    -2.48718
 H     2.15820     2.36109     1.50882
 H     3.22920    -1.41791     0.28982
 H     2.63020    -0.27491    -2.35318
 H     3.72020     1.03909    -1.86918
 H     1.80020     3.04309    -0.07318
 H     3.45420     2.52509     0.30782
 H     3.05520    -0.42891     1.73582
 H     4.25920     0.01009     0.50882
 P     1.94920     0.60909    -0.17918
 C    -1.05198    -0.32872     0.09671
 C    -0.62276    -1.62922     0.34508
 C    -0.37395    -2.04165     1.64974
 C    -0.55359    -1.15462     2.70542
 C    -0.98286     0.14455     2.45755
 C    -1.23235     0.55765     1.15257
 H    -1.24580    -0.00798    -0.91817
 H    -0.48286    -2.31790    -0.47694
 H    -0.03946    -3.05211     1.84199
 H    -0.35976    -1.47537     3.72030
 H    -1.12271     0.83455     3.27907
 H    -1.56592     1.56804     0.95828
