   11
 
 C    -1.79550     0.00000    -1.78000
Cl     0.00000     0.00000    -1.78000
 H    -2.13568     1.03004    -1.78000
 H    -2.13621    -0.51378    -2.67122
 H    -2.13603    -0.51368    -0.88849
 C     1.36928    -0.00078     2.58031
 H     1.34895    -0.89232     3.20013
 H    -1.00767     0.00058     2.26192
 H     1.35001     0.89184     3.20059
 H     2.28610    -0.00100     1.99556
 S     0.00000     0.00000     1.37470
