   20
 
 C     0.00000     0.00000    -1.70000
 C    -1.39183     0.00000    -1.70000
 C    -2.08675     1.20467    -1.70000
 C    -1.39093     2.40858    -1.69953
 C    -0.00040     2.40881    -1.70002
 C     0.69541     1.20393    -1.70044
 H     0.54058    -0.93712    -1.70029
 H    -1.93177    -0.93704    -1.69974
 H    -3.16835     1.20398    -1.69898
 H    -1.93150     3.34569    -1.69924
 H     0.54084     3.34562    -1.69978
 H     1.77703     1.20264    -1.70042
 C     0.73151    -1.26433     2.57493
 C    -0.65340     1.12932     2.45292
 H     0.58284    -1.01904     3.62449
 H    -1.15303     1.99341     2.03362
 H    -0.62544     1.07936     3.53478
 H     1.80031    -1.35470     2.37555
 H     0.28433    -2.23810     2.36682
 P     0.00000     0.00000     1.43237
