   11
 
 C     0.27832    -0.30312    -2.58374
 H    -0.09368    -1.18112    -3.11974
 H     1.33932    -1.25712    -1.24474
 H     1.11432     0.12588    -3.14274
 H    -0.51868     0.43488    -2.53774
 O     0.63432    -0.60712    -1.24074
 C    -0.50491     0.48328     0.98887
 H    -0.95858     0.91751     1.87706
 H    -0.43910     1.23948     0.20901
 H     0.49219     0.12333     1.22930
 H    -1.11542    -0.34606     0.63836
