    8
 
 C    -1.39018     0.00000    -1.40000
 F     0.00000     0.00000    -1.40000
 H    -1.73997     1.03111    -1.40000
 H    -1.74059    -0.51576    -2.29280
 H    -1.74029    -0.51514    -0.50638
 C     1.99505    -0.00038     1.67755
 I     0.00000     0.00000     1.67755
 N     3.14847     0.00021     1.67755
