   22
 
 C     2.03699     0.03792    -2.75531
 C     1.52599     0.35192    -4.13231
 C     3.50699    -0.25908    -2.67831
 H     1.71399    -0.49308    -4.80031
 H     3.75199    -1.10408    -3.32931
 H     2.07299     1.20092    -4.55131
 H     0.46399     0.57392    -4.12531
 H     3.81999    -0.48508    -1.66331
 H     4.08099     0.59292    -3.05331
 S     1.06999     0.01992    -1.44731
 C    -0.64583    -0.01202     0.87357
 C     0.47034    -0.12608     1.69719
 C     1.09912     1.01752     2.17778
 C     0.61283     2.27433     1.83497
 C    -0.50258     2.38851     1.01254
 C    -1.13233     1.24477     0.53175
 H    -1.13513    -0.90163     0.49995
 H     0.84789    -1.10415     1.96253
 H     1.96707     0.92821     2.81696
 H     1.10213     3.16394     2.20859
 H    -0.88089     3.36646     0.74602
 H    -1.99979     1.33212    -0.10838
