   14
 
 C    -1.79550     0.00000    -1.78000
Cl     0.00000     0.00000    -1.78000
 H    -2.13568     1.03004    -1.78000
 H    -2.13621    -0.51378    -2.67122
 H    -2.13603    -0.51368    -0.88849
 C    -0.24859    -1.06454     1.86282
 C    -0.16198    -0.69753     3.16363
 C     0.16415     0.69768     3.16360
 C     0.24853     1.06427     1.86262
 H     0.46594     1.99336     1.36824
 H     0.31365     1.33314     4.01827
 H    -0.46626    -1.99275     1.36826
 H    -0.31011    -1.33364     4.01787
 O     0.00000     0.00000     1.05206
