   12
 
 C     0.27832    -0.30312    -2.58374
 H    -0.09368    -1.18112    -3.11974
 H     1.33932    -1.25712    -1.24474
 H     1.11432     0.12588    -3.14274
 H    -0.51868     0.43488    -2.53774
 O     0.63432    -0.60712    -1.24074
 C    -0.29440     0.31806     2.61476
 H    -1.12964    -0.11317     3.17421
 H    -1.35503     1.27246     1.27576
 H     0.07530     1.19663     3.15035
 H     0.50486    -0.41749     2.56872
 O    -0.65018     0.62230     1.27176
