    8
 
 C    -1.70000     0.00000     0.00000
 H    -2.78777     0.00000     0.00000
 H    -1.33765     1.02619     0.00000
 H    -1.33677    -0.51227     0.88725
 H    -1.33735    -0.51198    -0.88868
 C     1.28313     1.31031    -0.97076
Cl     1.28245    -0.00043     0.00032
 N     1.28362     2.23637    -1.65603
