   14
 
 C     0.17069    -0.41562    -3.27212
 H    -0.26031    -1.29362    -3.74412
 H     1.49569    -1.71262    -1.75112
 H     1.03669    -0.07162    -3.83212
 H    -0.57431     0.37638    -3.25812
 S     0.59569    -0.74162    -1.52812
 C    -0.01671     0.23840     3.06740
 C    -1.64127     1.84897     1.50876
 H    -0.54096     0.83906     3.80783
 H    -2.10324     2.27585     0.62760
 H    -1.96543     2.25976     2.45738
 H     1.05796     0.39074     3.17754
 H    -0.21083    -0.81844     3.25949
 P    -0.51802     0.64491     1.32886
