   10
 
 C     0.17069    -0.41562    -3.27212
 H    -0.26031    -1.29362    -3.74412
 H     1.49569    -1.71262    -1.75112
 H     1.03669    -0.07162    -3.83212
 H    -0.57431     0.37638    -3.25812
 S     0.59569    -0.74162    -1.52812
 C    -0.46726     0.58172     1.19865
 C    -0.86256     1.07393     2.21432
 H    -0.11598     0.14439     0.29753
 H    -1.21318     1.51069     3.11594
