   23
 
 C     2.68020     0.70509    -1.87918
 C     2.39620     2.29409     0.44782
 C     3.25720    -0.39491     0.66482
 H     2.09520     1.39509    -2.48718
 H     2.15820     2.36109     1.50882
 H     3.22920    -1.41791     0.28982
 H     2.63020    -0.27491    -2.35318
 H     3.72020     1.03909    -1.86918
 H     1.80020     3.04309    -0.07318
 H     3.45420     2.52509     0.30782
 H     3.05520    -0.42891     1.73582
 H     4.25920     0.01009     0.50882
 P     1.94920     0.60909    -0.17918
 C    -2.52864    -0.79016     0.23245
 O    -1.37941    -0.43104     0.12681
 C    -3.38469    -0.38122     1.41386
 C    -3.18740    -1.67159    -0.80730
 H    -3.71073    -1.26769     1.96295
 H    -3.56591    -2.58601    -0.34615
 H    -4.28781     0.12781     1.07143
 H    -2.82250     0.27039     2.07513
 H    -2.47564    -1.92331    -1.58926
 H    -4.04619    -1.15920    -1.24495
