   12
 
 N     0.80225    -0.54249    -1.27362
 H     0.36825    -0.24949    -2.14062
 H     0.84325    -1.55349    -1.28562
 H     1.75525    -0.20349    -1.28562
 C    -0.39003     0.70119     3.27926
 C    -2.47967     1.28605     1.56060
 H    -1.14155     1.11665     3.94745
 H    -3.04564     1.37015     0.64153
 H    -2.97792     1.63914     2.45547
 H     0.52059     1.29807     3.34816
 H    -0.13590    -0.30823     3.60786
 P    -0.95322     0.64457     1.51328
