   15
 
 C    -1.79347     0.00000    -1.90000
Br     0.00000     0.00000    -1.90000
 N    -2.94550     0.00055    -1.90000
 C     0.00000     0.00000     1.06172
 C     0.69609    -1.20526     1.06172
 C     2.08683    -1.20453     1.06172
 C     2.78135     0.00012     1.06125
 C     2.08611     1.20437     1.06174
 C     0.69475     1.20431     1.06216
 H    -1.08186    -0.00057     1.06201
 H     0.15470    -2.14146     1.06146
 H     2.62717    -2.14149     1.06070
 H     3.86321     0.00069     1.06096
 H     2.62665     2.14158     1.06150
 H     0.15269     2.14029     1.06214
