   11
 
 N     0.90761    -0.90314    -0.95947
 C     2.25361    -0.33014    -0.92247
 H     0.54061    -0.90514    -1.90147
 H     2.61561    -0.32914     0.10553
 H     2.20961     0.70886    -1.24947
 H     2.99661    -0.84714    -1.54147
 H     0.91461    -1.86414    -0.64547
 C    -0.63714     0.63401     0.67355
 C    -1.31616     1.30860     1.39049
 H    -0.03503     0.03486     0.03704
 H    -1.91902     1.90712     2.02684
