    8
 
 C    -1.79550     0.00000    -1.78000
Cl     0.00000     0.00000    -1.78000
 H    -2.13568     1.03004    -1.78000
 H    -2.13621    -0.51378    -2.67122
 H    -2.13603    -0.51368    -0.88849
 C     0.00000     0.00000     2.42666
 H     0.00092    -0.00000     3.49241
 N     0.00000     0.00000     1.28160
