    9
 
 C    -1.79550     0.00000    -1.78000
Cl     0.00000     0.00000    -1.78000
 H    -2.13568     1.03004    -1.78000
 H    -2.13621    -0.51378    -2.67122
 H    -2.13603    -0.51368    -0.88849
 N     0.00000     0.00000     1.40295
 H     0.91250     0.23233     1.77613
 H    -0.25467    -0.90556     1.77584
 H    -0.65675     0.67323     1.77540
