   13
 
 C    -2.15572     0.00000    -2.10000
 I     0.00000     0.00000    -2.10000
 H    -2.47912     1.03349    -2.10000
 H    -2.47994    -0.51586    -2.99503
 H    -2.47988    -0.51635    -1.20631
 C     1.46070     0.00076     2.65886
 C    -1.30472    -0.00068     2.53685
 H     1.17393    -0.00524     3.70843
 H    -2.30286    -0.00093     2.11756
 H    -1.24748    -0.00147     3.61872
 H     2.07372     0.88094     2.45949
 H     2.08007    -0.87364     2.45076
 P     0.00000     0.00000     1.51631
