    9
 
 C    -1.70000     0.00000     0.00000
 H    -2.78777     0.00000     0.00000
 H    -1.33765     1.02619     0.00000
 H    -1.33677    -0.51227     0.88725
 H    -1.33735    -0.51198    -0.88868
 C     1.43702    -0.00049     0.00036
 C     2.63290    -0.00026     0.00015
 H     0.37558    -0.00013     0.00009
 H     3.69432     0.00022    -0.00012
