   14
 
 C     0.00000     0.00000    -1.70000
 C    -1.19588     0.00000    -1.70000
 H     1.06145     0.00071    -1.70000
 H    -2.25730     0.00028    -1.70011
 C     0.00000     0.00000     2.37092
 O     0.00000     0.00000     1.16226
 C     0.83365     0.98369     3.16663
 C    -0.83164    -0.98210     3.16830
 H     1.55343     0.44572     3.78802
 H    -0.19544    -1.56167     3.84019
 H     0.19975     1.55911     3.84418
 H     1.36118     1.65471     2.49628
 H    -1.36306    -1.65269     2.49798
 H    -1.54792    -0.44677     3.79436
