   14
 
 H     2.63000     0.71779    -1.38916
 H     2.35200     1.93979     0.25284
 H     3.01700     0.00079     0.50884
 P     1.94000     0.64479    -0.15216
 C    -2.21939    -0.73765     0.17408
 O    -1.07559    -0.35749     0.08436
 C    -3.37751     0.09720    -0.33340
 C    -2.56971    -2.07126     0.79916
 H    -4.05075     0.34186     0.49153
 H    -3.26100    -1.93087     1.63253
 H    -3.96306    -0.46709    -1.06190
 H    -3.00874     1.01212    -0.78604
 H    -1.66882    -2.56775     1.15033
 H    -3.07740    -2.70615     0.07063
