   11
 
 C    -1.26483     0.00000    -1.40000
 F     0.00000     0.00000    -1.40000
 N    -2.41547     0.00075    -1.40000
 C     1.46070     0.00066     2.51394
 C    -1.30472    -0.00059     2.39193
 H     1.17393    -0.00532     3.56350
 H    -2.30286    -0.00077     1.97263
 H    -1.24748    -0.00139     3.47379
 H     2.07378     0.88079     2.31456
 H     2.08001    -0.87378     2.30583
 P     0.00000     0.00000     1.37139
