   11
 
 C    -1.39018     0.00000    -1.40000
 F     0.00000     0.00000    -1.40000
 H    -1.73997     1.03111    -1.40000
 H    -1.74059    -0.51576    -2.29280
 H    -1.74029    -0.51514    -0.50638
 C     1.15762    -0.00020     2.04522
 H     1.21133    -0.89072     2.67819
 H    -0.78050     0.00013     1.77605
 H     1.20945     0.88918     2.67904
 H     2.01776     0.00144     1.38030
 O     0.00000     0.00000     1.21895
