    8
 
 C    -1.48555    -1.16449     0.02777
 H    -0.62955    -0.49349     0.01177
 H    -1.45255    -1.77249     0.92977
 H    -2.40355    -0.58249     0.01677
 H    -1.45555    -1.81149    -0.84623
 C     0.26722     2.51805    -0.85011
 I     1.39765     1.09559    -0.02612
 N    -0.38653     3.34070    -1.32575
