   13
 
 C     2.71040    -1.25299     1.25435
 C     3.06940    -2.47199     1.75335
 C     2.00440    -3.41299     1.71335
 C     0.86040    -2.88899     1.18535
 H    -0.08960    -3.37399     1.03735
 H     2.08540    -4.43199     2.06135
 H     3.31340    -0.36599     1.16535
 H     4.05540    -2.69099     2.13535
 S     1.07340    -1.24499     0.73335
 C    -0.87220     1.01163    -0.59589
 C    -1.58474     1.83901    -1.08360
 H    -0.23923     0.27747    -0.16344
 H    -2.21699     2.57338    -1.51670
