   15
 
 C     2.03699     0.03792    -2.75531
 C     1.52599     0.35192    -4.13231
 C     3.50699    -0.25908    -2.67831
 H     1.71399    -0.49308    -4.80031
 H     3.75199    -1.10408    -3.32931
 H     2.07299     1.20092    -4.55131
 H     0.46399     0.57392    -4.12531
 H     3.81999    -0.48508    -1.66331
 H     4.08099     0.59292    -3.05331
 S     1.06999     0.01992    -1.44731
 C    -0.69420    -0.01234     0.93968
 H    -1.34060    -0.02400     1.81447
 H    -1.25824    -0.33845     0.06798
 H    -0.32411     0.99635     0.77493
 H     0.14536    -0.68523     1.10014
