   12
 
 C     0.00000     0.00000    -1.70000
 C    -1.32475     0.00000    -1.70000
 H     0.56944     0.92003    -1.70000
 H     0.56843    -0.92056    -1.70118
 H    -1.89318     0.92056    -1.69882
 H    -1.89416    -0.91920    -1.70055
 C     0.00000     0.00000     1.24576
 C     1.32475    -0.00055     1.24576
 H    -0.56905     0.92027     1.24576
 H    -0.56882    -0.92032     1.24694
 H     1.89357     0.91977     1.24458
 H     1.89377    -0.92000     1.24631
