   10
 
 H     2.63000     0.71779    -1.38916
 H     2.35200     1.93979     0.25284
 H     3.01700     0.00079     0.50884
 P     1.94000     0.64479    -0.15216
 C    -2.15233     0.40241     0.60749
 H    -2.59542    -0.06868     1.48971
 H    -1.39215    -1.21634    -0.18657
 H    -2.93537     0.56742    -0.13752
 H    -1.74774     1.36817     0.90004
 O    -1.06850    -0.35513     0.08381
