   13
 
 C    -1.70000     0.00000     0.00000
 H    -2.78777     0.00000     0.00000
 H    -1.33765     1.02619     0.00000
 H    -1.33677    -0.51227     0.88725
 H    -1.33735    -0.51198    -0.88868
 C     2.65756     1.17349    -0.86794
 C     2.53439    -1.04984     0.77648
 H     3.70701     0.93909    -0.70184
 H     2.11467    -1.85203     1.37014
 H     3.61628    -1.00467     0.74205
 H     2.45845     2.18998    -0.52539
 H     2.44972     1.15100    -1.93929
 P     1.51440    -0.00051     0.00038
