    9
 
 C     0.17069    -0.41562    -3.27212
 H    -0.26031    -1.29362    -3.74412
 H     1.49569    -1.71262    -1.75112
 H     1.03669    -0.07162    -3.83212
 H    -0.57431     0.37638    -3.25812
 S     0.59569    -0.74162    -1.52812
 C     0.56862    -0.46699     1.91666
Cl    -0.41254     0.51360     1.05829
 N     1.26201    -1.15905     2.52283
