   17
 
 C    -2.15572     0.00000    -2.10000
 I     0.00000     0.00000    -2.10000
 H    -2.47912     1.03349    -2.10000
 H    -2.47994    -0.51586    -2.99503
 H    -2.47988    -0.51635    -1.20631
 C     0.00000     0.00000     1.13380
 C     0.69607    -1.20527     1.13380
 C     2.08681    -1.20457     1.13380
 C     2.78135     0.00007     1.13333
 C     2.08613     1.20433     1.13382
 C     0.69477     1.20430     1.13424
 H    -1.08186    -0.00055     1.13409
 H     0.15466    -2.14146     1.13354
 H     2.62713    -2.14154     1.13278
 H     3.86321     0.00062     1.13304
 H     2.62669     2.14153     1.13358
 H     0.15273     2.14029     1.13422
