   20
 
 C    -0.17545    -2.00747     1.57781
 C    -0.82945    -2.99347     2.30681
 C    -2.21545    -3.05347     2.24581
 C    -2.88545    -2.12647     1.45881
 C    -2.13845    -1.17947     0.76781
 N    -0.80745    -1.11247     0.81881
 H     0.90655    -1.93347     1.60381
 H    -0.26345    -3.69347     2.90581
 H    -2.76045    -3.80647     2.79881
 H    -3.96345    -2.13347     1.37981
 H    -2.63045    -0.44147     0.14481
 C     0.23657     1.56384    -1.78676
 C     1.18030     2.43820    -2.21005
 C     2.27308     2.32167    -1.29069
 C     1.90397     1.38560    -0.38427
 H     2.38213     0.96444     0.48109
 H     3.20191     2.86349    -1.30867
 H    -0.73988     1.29702    -2.14578
 H     1.11304     3.08564    -3.06596
 O     0.66127     0.91107    -0.67057
