    8
 
 H    -1.00458    -0.48631     1.93896
 H    -0.43058     0.92569     1.99096
 O    -0.51858     0.15869     1.41996
 C    -0.18815    -1.98185    -1.57064
Br     0.54928    -0.16808    -1.50402
 H    -1.20073    -1.91104    -1.94836
 H     0.43736    -2.56594    -2.23288
 H    -0.17185    -2.37989    -0.56315
