   12
 
 C     0.00000     0.00000    -1.70000
 C    -1.19588     0.00000    -1.70000
 H     1.06145     0.00071    -1.70000
 H    -2.25730     0.00028    -1.70011
 C     1.46070     0.00035     2.76318
 C    -1.30472    -0.00031     2.64117
 H     1.17393    -0.00557     3.81274
 H    -2.30286    -0.00028     2.22187
 H    -1.24748    -0.00112     3.72303
 H     2.07396     0.88035     2.56380
 H     2.07982    -0.87423     2.55507
 P     0.00000     0.00000     1.62063
