    8
 
 C    -1.70000     0.00000     0.00000
 H    -2.78777     0.00000     0.00000
 H    -1.33765     1.02619     0.00000
 H    -1.33677    -0.51227     0.88725
 H    -1.33735    -0.51198    -0.88868
 H     2.27490    -0.77888     0.57687
 H     2.27628     0.77781    -0.57608
 S     1.34809    -0.00046     0.00034
