   14
 
 C     2.71040    -1.25299     1.25435
 C     3.06940    -2.47199     1.75335
 C     2.00440    -3.41299     1.71335
 C     0.86040    -2.88899     1.18535
 H    -0.08960    -3.37399     1.03735
 H     2.08540    -4.43199     2.06135
 H     3.31340    -0.36599     1.16535
 H     4.05540    -2.69099     2.13535
 S     1.07340    -1.24499     0.73335
 C     0.57603     1.52662    -1.81062
Br    -0.86473     1.00297    -0.59079
 H     0.48550     0.92197    -2.70461
 H     0.45053     2.57796    -2.03404
 H     1.51668     1.34244    -1.30564
