    8
 
 H    -1.00458    -0.48631     1.93896
 H    -0.43058     0.92569     1.99096
 O    -0.51858     0.15869     1.41996
 C    -0.22068    -2.17663    -1.69004
 I     0.59049    -0.18069    -1.61685
 H    -1.23262    -2.10079    -2.06809
 H     0.40704    -2.75757    -2.35396
 H    -0.20278    -2.57095    -0.68279
