   12
 
 C     0.05261    -1.10658    -1.49590
 C     0.08561    -1.81758    -2.45690
 H     0.02261    -0.47558    -0.64290
 H     0.11461    -2.44858    -3.30990
 C     1.38431     1.62841     2.03622
 C    -1.37030     1.36006     1.98603
 H     1.06903     2.22736     2.88811
 H    -2.35396     1.04033     1.66619
 H    -1.34373     2.00659     2.85494
 H     1.94267     2.25809     1.34196
 H     2.06623     0.84788     2.37864
 P    -0.04021     0.84576     1.14332
