    8
 
 C    -1.39018     0.00000    -1.40000
 F     0.00000     0.00000    -1.40000
 H    -1.73997     1.03111    -1.40000
 H    -1.74059    -0.51576    -2.29280
 H    -1.74029    -0.51514    -0.50638
 C     1.26483    -0.00030     0.97356
 F     0.00000     0.00000     0.97356
 N     2.41547     0.00018     0.97356
