   18
 
 C     0.27832    -0.30312    -2.58374
 H    -0.09368    -1.18112    -3.11974
 H     1.33932    -1.25712    -1.24474
 H     1.11432     0.12588    -3.14274
 H    -0.51868     0.43488    -2.53774
 O     0.63432    -0.60712    -1.24074
 C    -0.50626     0.48455     0.99026
 C    -0.90174    -0.78277     1.40820
 C    -0.05932    -1.54398     2.21136
 C     1.17780    -1.03895     2.59612
 C     1.57290     0.22737     2.17909
 C     0.73038     0.98956     1.37590
 H    -1.16170     1.07680     0.36572
 H    -1.86390    -1.17460     1.10772
 H    -0.36682    -2.52915     2.53497
 H     1.83324    -1.63120     3.22066
 H     2.53543     0.62021     2.47866
 H     1.03660     1.97456     1.05046
