   20
 
 C     2.03699     0.03792    -2.75531
 C     1.52599     0.35192    -4.13231
 C     3.50699    -0.25908    -2.67831
 H     1.71399    -0.49308    -4.80031
 H     3.75199    -1.10408    -3.32931
 H     2.07299     1.20092    -4.55131
 H     0.46399     0.57392    -4.12531
 H     3.81999    -0.48508    -1.66331
 H     4.08099     0.59292    -3.05331
 S     1.06999     0.01992    -1.44731
 C    -1.28100    -0.02384     1.73273
 O    -0.56252    -0.01047     0.76089
 C    -2.03103     1.21260     2.18486
 C    -1.47811    -1.27536     2.56147
 H    -1.71718     1.49133     3.19354
 H    -1.20443    -1.08959     3.60198
 H    -3.10308     1.01142     2.23218
 H    -1.84013     2.03564     1.50362
 H    -0.87411    -2.08652     2.16317
 H    -2.53016    -1.56652     2.55831
