   13
 
 C     2.21120    -0.88324     0.97875
 C     2.70720    -2.03124     1.49875
 C     1.63620    -2.98224     1.45975
 C     0.57720    -2.33424     0.91875
 H    -0.43180    -2.62624     0.69175
 H     1.65920    -4.00524     1.79075
 H     2.62820     0.09076     0.80275
 H     3.70620    -2.18724     1.86475
 O     0.90920    -1.04924     0.61875
 N    -0.89490     1.03275    -0.60902
 H    -0.86038     1.00653    -1.62096
 H    -0.63303     1.96778    -0.32428
 H    -1.85987     0.89590    -0.33811
