   11
 
 H     0.88017    -2.75419     0.12263
 H     0.11717    -2.39519    -1.62137
 S     0.32917    -1.69919    -0.49437
 C     0.08474     2.26644     2.05282
 C    -0.98395     2.66403    -0.46954
 H    -0.22560     3.30881     2.08497
 H    -1.30082     2.45336    -1.48310
 H    -1.15996     3.67446    -0.12060
 H     1.15554     2.20463     2.25233
 H    -0.42073     1.71649     2.84878
 P    -0.28259     1.45872     0.42440
