   20
 
 C     2.71040    -1.25299     1.25435
 C     3.06940    -2.47199     1.75335
 C     2.00440    -3.41299     1.71335
 C     0.86040    -2.88899     1.18535
 H    -0.08960    -3.37399     1.03735
 H     2.08540    -4.43199     2.06135
 H     3.31340    -0.36599     1.16535
 H     4.05540    -2.69099     2.13535
 S     1.07340    -1.24499     0.73335
 C    -1.28989     0.56516    -1.62182
 C    -2.12678     1.49305    -2.23009
 C    -2.33631     2.71140    -1.59761
 C    -1.69984     2.94815    -0.38664
 C    -0.88192     1.95439     0.13847
 N    -0.67332     0.78096    -0.46002
 H    -1.10526    -0.39595    -2.08985
 H    -2.60033     1.26243    -3.17440
 H    -2.98063     3.45937    -2.03947
 H    -1.83207     3.88117     0.14287
 H    -0.37064     2.10709     1.08193
