    8
 
 C    -1.39018     0.00000    -1.40000
 F     0.00000     0.00000    -1.40000
 H    -1.73997     1.03111    -1.40000
 H    -1.74059    -0.51576    -2.29280
 H    -1.74029    -0.51514    -0.50638
 C     1.79347    -0.00027     1.51159
Br     0.00000     0.00000     1.51159
 N     2.94550     0.00011     1.51159
