   15
 
 C    -1.49806     0.00000    -1.60000
 H    -1.80852     0.01276    -2.64146
 H    -1.83572     0.89668    -1.09422
 H    -1.83494    -0.90925    -1.11613
 N     0.00000     0.00000    -1.60000
 O     0.55588    -1.08312    -1.62666
 O     0.55598     1.08362    -1.60000
 C     1.46070     0.00078     2.43226
 C    -1.30472    -0.00070     2.31025
 H     1.17393    -0.00522     3.48182
 H    -2.30286    -0.00097     1.89095
 H    -1.24748    -0.00149     3.39211
 H     2.07370     0.88097     2.23288
 H     2.08008    -0.87360     2.22415
 P     0.00000     0.00000     1.28971
