   10
 
 N     0.90761    -0.90314    -0.95947
 C     2.25361    -0.33014    -0.92247
 H     0.54061    -0.90514    -1.90147
 H     2.61561    -0.32914     0.10553
 H     2.20961     0.70886    -1.24947
 H     2.99661    -0.84714    -1.54147
 H     0.91461    -1.86414    -0.64547
 C    -1.96886    -0.26531     0.38331
Cl    -0.67898     0.67564     0.71777
 N    -2.87965    -0.93021     0.14763
