   12
 
 C    -1.79550     0.00000    -1.78000
Cl     0.00000     0.00000    -1.78000
 H    -2.13568     1.03004    -1.78000
 H    -2.13621    -0.51378    -2.67122
 H    -2.13603    -0.51368    -0.88849
 N     0.00000     0.00000     1.31101
 C     1.40242    -0.00015     1.72891
 H    -0.48462    -0.81188     1.66884
 H     1.90015     0.87769     1.31723
 H     1.89975    -0.87681     1.31356
 H     1.56480    -0.00271     2.81340
 H    -0.48427     0.81203     1.66914
