   23
 
 C    -0.17545    -2.00747     1.57781
 C    -0.82945    -2.99347     2.30681
 C    -2.21545    -3.05347     2.24581
 C    -2.88545    -2.12647     1.45881
 C    -2.13845    -1.17947     0.76781
 N    -0.80745    -1.11247     0.81881
 H     0.90655    -1.93347     1.60381
 H    -0.26345    -3.69347     2.90581
 H    -2.76045    -3.80647     2.79881
 H    -3.96345    -2.13347     1.37981
 H    -2.63045    -0.44147     0.14481
 C     0.57797     0.79630    -0.58610
 C    -0.58152     1.55867    -0.69371
 C    -0.88751     2.49989     0.28334
 C    -0.03533     2.67866     1.36749
 C     1.12337     1.91746     1.47495
 C     1.43026     0.97593     0.49758
 H     0.81614     0.06432    -1.34629
 H    -1.24374     1.41819    -1.53710
 H    -1.78922     3.09130     0.19964
 H    -0.27351     3.41064     2.12768
 H     1.78637     2.05676     2.31849
 H     2.33102     0.38287     0.58011
