   11
 
 C    -1.79550     0.00000    -1.78000
Cl     0.00000     0.00000    -1.78000
 H    -2.13568     1.03004    -1.78000
 H    -2.13621    -0.51378    -2.67122
 H    -2.13603    -0.51368    -0.88849
 C     1.15762    -0.00053     1.99977
 H     1.21108    -0.89106     2.63275
 H    -0.78050     0.00035     1.73060
 H     1.20970     0.88884     2.63360
 H     2.01776     0.00087     1.33485
 O     0.00000     0.00000     1.17350
