    8
 
 C    -1.70000     0.00000     0.00000
 H    -2.78777     0.00000     0.00000
 H    -1.33765     1.02619     0.00000
 H    -1.33677    -0.51227     0.88725
 H    -1.33735    -0.51198    -0.88868
 C     0.96559     1.01594    -0.75276
 F     0.96506    -0.00033     0.00024
 N     0.96608     1.94089    -1.43717
