   15
 
 C    -1.39018     0.00000    -1.40000
 F     0.00000     0.00000    -1.40000
 H    -1.73997     1.03111    -1.40000
 H    -1.74059    -0.51576    -2.29280
 H    -1.74029    -0.51514    -0.50638
 C     0.00000     0.00000     2.38527
 O     0.00000     0.00000     1.17661
 C     0.83327     0.98401     3.18098
 C    -0.83126    -0.98242     3.18265
 H     1.55326     0.44632     3.80237
 H    -0.19484    -1.56175     3.85454
 H     0.19915     1.55919     3.85853
 H     1.36054     1.65523     2.51063
 H    -1.36243    -1.65321     2.51233
 H    -1.54774    -0.44736     3.80871
