   16
 
 H     2.63000     0.71779    -1.38916
 H     2.35200     1.93979     0.25284
 H     3.01700     0.00079     0.50884
 P     1.94000     0.64479    -0.15216
 C    -1.05233    -0.34976     0.08254
 C    -1.00394    -0.16984     1.46185
 C    -1.36684     1.05287     2.01632
 C    -1.77739     2.09522     1.19261
 C    -1.82628     1.91554    -0.18539
 C    -1.46374     0.69239    -0.74069
 H    -0.77030    -1.30100    -0.34876
 H    -0.68386    -0.98116     2.10128
 H    -1.32805     1.19235     3.08818
 H    -2.05942     3.04646     1.62391
 H    -2.14586     2.72663    -0.82613
 H    -1.50091     0.55137    -1.81243
