   21
 
 C     2.21120    -0.88324     0.97875
 C     2.70720    -2.03124     1.49875
 C     1.63620    -2.98224     1.45975
 C     0.57720    -2.33424     0.91875
 H    -0.43180    -2.62624     0.69175
 H     1.65920    -4.00524     1.79075
 H     2.62820     0.09076     0.80275
 H     3.70620    -2.18724     1.86475
 O     0.90920    -1.04924     0.61875
 C    -0.66786     0.77073    -0.45451
 C     0.44444     1.53840    -0.78718
 C     1.07151     1.35755    -2.01528
 C     0.58739     0.40967    -2.91010
 C    -0.52416    -0.35704    -2.57815
 C    -1.15220    -0.17630    -1.34982
 H    -1.15583     0.91162     0.50071
 H     0.82031     2.27483    -0.09006
 H     1.93646     1.95373    -2.27277
 H     1.07536     0.26879    -3.86532
 H    -0.90078    -1.09442    -3.27455
 H    -2.01666    -0.77227    -1.09016
