    9
 
 C     0.00000     0.00000    -1.70000
 C    -1.32475     0.00000    -1.70000
 H     0.56944     0.92003    -1.70000
 H     0.56843    -0.92056    -1.70118
 H    -1.89318     0.92056    -1.69882
 H    -1.89416    -0.91920    -1.70055
 C     1.79347    -0.00058     1.39600
Br     0.00000     0.00000     1.39600
 N     2.94550    -0.00041     1.39600
