   19
 
 C     2.21120    -0.88324     0.97875
 C     2.70720    -2.03124     1.49875
 C     1.63620    -2.98224     1.45975
 C     0.57720    -2.33424     0.91875
 H    -0.43180    -2.62624     0.69175
 H     1.65920    -4.00524     1.79075
 H     2.62820     0.09076     0.80275
 H     3.70620    -2.18724     1.86475
 O     0.90920    -1.04924     0.61875
 C    -1.42796     1.64791    -0.97179
 O    -0.70499     0.81358    -0.47978
 C    -2.17951     1.38874    -2.26166
 C    -1.62947     3.00539    -0.33257
 H    -1.87020     2.10711    -3.02448
 H    -1.36051     3.79909    -1.03242
 H    -3.25186     1.52920    -2.11219
 H    -1.98508     0.37987    -2.61139
 H    -1.02401     3.08900     0.56624
 H    -2.68163     3.14954    -0.08003
