   20
 
 C     2.68020     0.70509    -1.87918
 C     2.39620     2.29409     0.44782
 C     3.25720    -0.39491     0.66482
 H     2.09520     1.39509    -2.48718
 H     2.15820     2.36109     1.50882
 H     3.22920    -1.41791     0.28982
 H     2.63020    -0.27491    -2.35318
 H     3.72020     1.03909    -1.86918
 H     1.80020     3.04309    -0.07318
 H     3.45420     2.52509     0.30782
 H     3.05520    -0.42891     1.73582
 H     4.25920     0.01009     0.50882
 P     1.94920     0.60909    -0.17918
 N    -1.57721    -0.49285     0.14499
 C    -1.72350    -1.03346     1.49693
 H    -1.79898    -1.19211    -0.55064
 H    -1.46485    -0.26223     2.22228
 H    -1.01799    -1.85328     1.63306
 H    -2.72496    -1.40621     1.74318
 H    -2.20964     0.28144    -0.00557
