   10
 
 C    -1.48555    -1.16449     0.02777
 H    -0.62955    -0.49349     0.01177
 H    -1.45255    -1.77249     0.92977
 H    -2.40355    -0.58249     0.01677
 H    -1.45555    -1.81149    -0.84623
 C     1.11770     0.87697    -0.02119
 H     1.97344     1.54830    -0.03738
 H     1.15106     0.26908     0.88086
 H     0.19948     1.45862    -0.03213
 H     1.14783     0.22989    -0.89513
