   18
 
 C     2.21120    -0.88324     0.97875
 C     2.70720    -2.03124     1.49875
 C     1.63620    -2.98224     1.45975
 C     0.57720    -2.33424     0.91875
 H    -0.43180    -2.62624     0.69175
 H     1.65920    -4.00524     1.79075
 H     2.62820     0.09076     0.80275
 H     3.70620    -2.18724     1.86475
 O     0.90920    -1.04924     0.61875
 C    -0.56753     2.12924    -0.32144
 C    -1.54964     2.75471    -1.01323
 C    -2.32662     1.71925    -1.62731
 C    -1.75319     0.54930    -1.25790
 H    -1.97478    -0.48150    -1.46580
 H    -3.19131     1.83750    -2.25576
 H     0.24490     2.47680     0.28905
 H    -1.70610     3.81639    -1.08147
 O    -0.67553     0.77959    -0.45973
