   10
 
 C    -1.95909     0.00000    -1.90000
Br     0.00000     0.00000    -1.90000
 H    -2.28753     1.03205    -1.90000
 H    -2.28692    -0.51574    -2.79304
 H    -2.28720    -0.51646    -1.00593
 C     0.00072     0.00000     1.25971
 H     0.00117     0.00000     2.34748
 H    -0.82409     0.61074     0.89771
 H     0.94028     0.40811     0.89609
 H    -0.11691    -1.01886     0.89712
