    9
 
 H     2.63000     0.71779    -1.38916
 H     2.35200     1.93979     0.25284
 H     3.01700     0.00079     0.50884
 P     1.94000     0.64479    -0.15216
 C    -2.08844     1.38740     0.98070
 I    -1.52625    -0.50728     0.11971
 H    -2.37004     2.04225     0.16548
 H    -2.92155     1.20585     1.64800
 H    -1.22870     1.76823     1.51565
