   14
 
 C    -1.70000     0.00000     0.00000
 H    -2.78777     0.00000     0.00000
 H    -1.33765     1.02619     0.00000
 H    -1.33677    -0.51227     0.88725
 H    -1.33735    -0.51198    -0.88868
 C     1.82420    -0.83374    -0.70731
 C     3.12505    -0.54623    -0.46352
 C     3.12515     0.54595     0.46391
 C     1.82421     0.83230     0.70805
 H     1.32992     1.55995     1.32537
 H     3.97988     1.04387     0.88596
 H     1.32955    -1.56074    -1.32402
 H     3.97922    -1.04402    -0.88647
 O     1.01354    -0.00034     0.00025
