    8
 
 C    -1.48555    -1.16449     0.02777
 H    -0.62955    -0.49349     0.01177
 H    -1.45255    -1.77249     0.92977
 H    -2.40355    -0.58249     0.01677
 H    -1.45555    -1.81149    -0.84623
 C     0.26325     2.09400    -0.69592
Cl     1.18756     0.93091    -0.02220
 N    -0.38968     2.91561    -1.17112
