    8
 
 C    -1.70000     0.00000     0.00000
 H    -2.78777     0.00000     0.00000
 H    -1.33765     1.02619     0.00000
 H    -1.33677    -0.51227     0.88725
 H    -1.33735    -0.51198    -0.88868
 C     1.56495     1.60250    -1.18726
 I     1.56411    -0.00053     0.00039
 N     1.56543     2.52976    -1.87324
