   20
 
 C     2.03699     0.03792    -2.75531
 C     1.52599     0.35192    -4.13231
 C     3.50699    -0.25908    -2.67831
 H     1.71399    -0.49308    -4.80031
 H     3.75199    -1.10408    -3.32931
 H     2.07299     1.20092    -4.55131
 H     0.46399     0.57392    -4.12531
 H     3.81999    -0.48508    -1.66331
 H     4.08099     0.59292    -3.05331
 S     1.06999     0.01992    -1.44731
 C    -1.67641    -0.03121     2.26757
 C    -2.73996     1.00374     2.49907
 C    -1.57302    -1.08215     3.33521
 H    -2.55155     1.52626     3.44091
 H    -1.38031    -0.61214     4.30465
 H    -3.71571     0.52206     2.60615
 H    -2.78001     1.72589     1.69032
 H    -0.78579    -1.79874     3.12064
 H    -2.52590    -1.60956     3.43458
 S    -0.70941    -0.01321     0.95957
