    8
 
 C    -2.15572     0.00000    -2.10000
 I     0.00000     0.00000    -2.10000
 H    -2.47912     1.03349    -2.10000
 H    -2.47994    -0.51586    -2.99503
 H    -2.47988    -0.51635    -1.20631
 C     1.26483    -0.00043     0.85330
 F     0.00000     0.00000     0.85330
 N     2.41547    -0.00007     0.85330
