   14
 
 F     0.65550    -0.27452     1.56871
 H     0.30450    -0.12752     0.72871
 C    -0.32162     0.13470    -0.76970
 C    -0.66081    -1.21190    -0.86362
 C    -1.90478    -1.64776    -0.42010
 C    -2.80896    -0.73831     0.11739
 C    -2.47049     0.60716     0.21087
 C    -1.22628     1.04390    -0.23305
 H     0.64595     0.47380    -1.11498
 H     0.04359    -1.91827    -1.28129
 H    -2.16736    -2.69451    -0.49244
 H    -3.77654    -1.07741     0.46268
 H    -3.17417     1.31466     0.62899
 H    -0.96154     2.09011    -0.16057
