   26
 
 C     2.68020     0.70509    -1.87918
 C     2.39620     2.29409     0.44782
 C     3.25720    -0.39491     0.66482
 H     2.09520     1.39509    -2.48718
 H     2.15820     2.36109     1.50882
 H     3.22920    -1.41791     0.28982
 H     2.63020    -0.27491    -2.35318
 H     3.72020     1.03909    -1.86918
 H     1.80020     3.04309    -0.07318
 H     3.45420     2.52509     0.30782
 H     3.05520    -0.42891     1.73582
 H     4.25920     0.01009     0.50882
 P     1.94920     0.60909    -0.17918
 C    -2.20559    -1.87530     1.41783
 C    -3.08142     0.70066     0.63179
 C    -2.63610    -1.30138    -1.32081
 H    -1.90858    -1.53114     2.40845
 H    -3.08456     1.49963    -0.10882
 H    -2.07889    -2.17877    -1.64892
 H    -1.63212    -2.77510     1.19634
 H    -3.26765    -2.13010     1.43713
 H    -2.81663     1.14104     1.59284
 H    -4.08649     0.27958     0.70146
 H    -2.62602    -0.57817    -2.13681
 H    -3.66940    -1.59397    -1.12322
 P    -1.81237    -0.56633     0.16661
