   13
 
 N     0.90761    -0.90314    -0.95947
 C     2.25361    -0.33014    -0.92247
 H     0.54061    -0.90514    -1.90147
 H     2.61561    -0.32914     0.10553
 H     2.20961     0.70886    -1.24947
 H     2.99661    -0.84714    -1.54147
 H     0.91461    -1.86414    -0.64547
 C    -0.85482     0.85062     0.90367
 C    -1.90236     0.08653     0.63200
 H    -0.19283     0.63577     1.73212
 H    -0.61785     1.72275     0.30887
 H    -2.13933    -0.78560     1.22679
 H    -2.56445     0.30122    -0.19547
