   12
 
 C     0.27832    -0.30312    -2.58374
 H    -0.09368    -1.18112    -3.11974
 H     1.33932    -1.25712    -1.24474
 H     1.11432     0.12588    -3.14274
 H    -0.51868     0.43488    -2.53774
 O     0.63432    -0.60712    -1.24074
 C    -0.55719     0.53330     1.08987
 C     0.24450    -0.19261     1.85493
 H    -0.27805     1.52154     0.74902
 H    -1.52578     0.16865     0.77456
 H     1.21308     0.17204     2.17024
 H    -0.03433    -1.18000     2.19621
