   15
 
 C    -1.63127     0.00000    -1.78000
Cl     0.00000     0.00000    -1.78000
 N    -2.78330     0.00066    -1.78000
 C     0.00000     0.00000     1.07464
 C     0.69605    -1.20528     1.07464
 C     2.08679    -1.20460     1.07464
 C     2.78135     0.00003     1.07417
 C     2.08615     1.20430     1.07467
 C     0.69479     1.20429     1.07508
 H    -1.08186    -0.00053     1.07493
 H     0.15463    -2.14146     1.07439
 H     2.62710    -2.14158     1.07363
 H     3.86321     0.00056     1.07388
 H     2.62672     2.14149     1.07443
 H     0.15276     2.14029     1.07507
