    8
 
 N     0.80225    -0.54249    -1.27362
 H     0.36825    -0.24949    -2.14062
 H     0.84325    -1.55349    -1.28562
 H     1.75525    -0.20349    -1.28562
 N    -1.13631     0.76838     1.80395
 H    -0.52572     0.90012     2.60127
 H    -1.86482     0.12576     2.08724
 H    -1.57839     1.65826     1.61434
