   15
 
 C    -1.99505     0.00000    -2.10000
 I     0.00000     0.00000    -2.10000
 N    -3.14847     0.00080    -2.10000
 C     0.00000     0.00000     0.99814
 C     0.69605    -1.20529     0.99814
 C     2.08678    -1.20462     0.99814
 C     2.78135     0.00001     0.99767
 C     2.08616     1.20429     0.99816
 C     0.69480     1.20428     0.99858
 H    -1.08186    -0.00052     0.99843
 H     0.15462    -2.14146     0.99788
 H     2.62708    -2.14160     0.99712
 H     3.86321     0.00053     0.99738
 H     2.62674     2.14147     0.99792
 H     0.15277     2.14029     0.99856
