   16
 
 C    -0.17545    -2.00747     1.57781
 C    -0.82945    -2.99347     2.30681
 C    -2.21545    -3.05347     2.24581
 C    -2.88545    -2.12647     1.45881
 C    -2.13845    -1.17947     0.76781
 N    -0.80745    -1.11247     0.81881
 H     0.90655    -1.93347     1.60381
 H    -0.26345    -3.69347     2.90581
 H    -2.76045    -3.80647     2.79881
 H    -3.96345    -2.13347     1.37981
 H    -2.63045    -0.44147     0.14481
 C     0.32561     2.37004     0.60740
Br     0.75766     1.04388    -0.76832
 H     1.11461     2.34311     1.34886
 H     0.27351     3.33745     0.12533
 H    -0.62902     2.09525     1.03974
