   24
 
 C     2.68020     0.70509    -1.87918
 C     2.39620     2.29409     0.44782
 C     3.25720    -0.39491     0.66482
 H     2.09520     1.39509    -2.48718
 H     2.15820     2.36109     1.50882
 H     3.22920    -1.41791     0.28982
 H     2.63020    -0.27491    -2.35318
 H     3.72020     1.03909    -1.86918
 H     1.80020     3.04309    -0.07318
 H     3.45420     2.52509     0.30782
 H     3.05520    -0.42891     1.73582
 H     4.25920     0.01009     0.50882
 P     1.94920     0.60909    -0.17918
 C    -2.38020     0.28540     0.77118
 C    -3.71198    -0.08239     0.92097
 C    -4.13052    -1.29132     0.38093
 C    -3.19977    -2.07855    -0.28357
 C    -1.89076    -1.62061    -0.37889
 N    -1.47760    -0.46173     0.13583
 H    -2.02119     1.22334     1.18135
 H    -4.39977     0.56502     1.44725
 H    -5.15889    -1.61242     0.47682
 H    -3.47819    -3.02730    -0.72028
 H    -1.13962    -2.21070    -0.89115
