   15
 
 C     2.71040    -1.25299     1.25435
 C     3.06940    -2.47199     1.75335
 C     2.00440    -3.41299     1.71335
 C     0.86040    -2.88899     1.18535
 H    -0.08960    -3.37399     1.03735
 H     2.08540    -4.43199     2.06135
 H     3.31340    -0.36599     1.16535
 H     4.05540    -2.69099     2.13535
 S     1.07340    -1.24499     0.73335
 C    -0.24999     1.58701    -1.47316
 H    -0.30141     2.63665    -1.16957
 H    -1.51492     0.88258    -0.15691
 H    -0.87603     1.44253    -2.35782
 H     0.77856     1.35591    -1.73893
 O    -0.60866     0.70596    -0.41584
