    8
 
 C     0.05261    -1.10658    -1.49590
 C     0.08561    -1.81758    -2.45690
 H     0.02261    -0.47558    -0.64290
 H     0.11461    -2.44858    -3.30990
 N    -0.02550     0.53640     0.72512
 H     0.85851     1.00872     0.87120
 H    -0.22950     0.01475     1.56786
 H    -0.73605     1.25076     0.63516
