   12
 
 C     0.17069    -0.41562    -3.27212
 H    -0.26031    -1.29362    -3.74412
 H     1.49569    -1.71262    -1.75112
 H     1.03669    -0.07162    -3.83212
 H    -0.57431     0.37638    -3.25812
 S     0.59569    -0.74162    -1.52812
 C    -0.42940     0.53458     1.10152
 C     0.36734    -0.26181     1.79861
 H    -0.10286     1.50688     0.75694
 H    -1.44105     0.24646     0.84838
 H     1.37900     0.02631     2.05175
 H     0.04121    -1.23329     2.14360
