   10
 
 C    -1.48555    -1.16449     0.02777
 H    -0.62955    -0.49349     0.01177
 H    -1.45255    -1.77249     0.92977
 H    -2.40355    -0.58249     0.01677
 H    -1.45555    -1.81149    -0.84623
 C     1.46893     1.15146    -0.02746
 H     0.61293     0.48046    -0.01146
 H     1.13764     2.16652     0.18294
 H     2.18762     0.84145     0.72683
 H     1.93653     1.11942    -1.00914
