   17
 
 C    -0.17545    -2.00747     1.57781
 C    -0.82945    -2.99347     2.30681
 C    -2.21545    -3.05347     2.24581
 C    -2.88545    -2.12647     1.45881
 C    -2.13845    -1.17947     0.76781
 N    -0.80745    -1.11247     0.81881
 H     0.90655    -1.93347     1.60381
 H    -0.26345    -3.69347     2.90581
 H    -2.76045    -3.80647     2.79881
 H    -3.96345    -2.13347     1.37981
 H    -2.63045    -0.44147     0.14481
 C     0.94577     2.43866    -0.40530
 H     0.51006     3.13021    -1.13226
 H     1.23761     0.93946    -1.62840
 H     1.99655     2.69963    -0.25307
 H     0.42190     2.55820     0.53982
 O     0.78424     1.08049    -0.79527
