   21
 
 C     2.68020     0.70509    -1.87918
 C     2.39620     2.29409     0.44782
 C     3.25720    -0.39491     0.66482
 H     2.09520     1.39509    -2.48718
 H     2.15820     2.36109     1.50882
 H     3.22920    -1.41791     0.28982
 H     2.63020    -0.27491    -2.35318
 H     3.72020     1.03909    -1.86918
 H     1.80020     3.04309    -0.07318
 H     3.45420     2.52509     0.30782
 H     3.05520    -0.42891     1.73582
 H     4.25920     0.01009     0.50882
 P     1.94920     0.60909    -0.17918
 C    -2.43470    -1.27563     1.61814
 C    -2.81344    -0.41930    -0.98680
 H    -3.48249    -1.50774     1.43890
 H    -2.59339     0.00151    -1.95973
 H    -3.83166    -0.75847    -0.83881
 H    -2.35782    -0.59973     2.47108
 H    -1.90497    -2.19125     1.88742
 P    -1.60965    -0.50299     0.14797
