    9
 
 C     0.17069    -0.41562    -3.27212
 H    -0.26031    -1.29362    -3.74412
 H     1.49569    -1.71262    -1.75112
 H     1.03669    -0.07162    -3.83212
 H    -0.57431     0.37638    -3.25812
 S     0.59569    -0.74162    -1.52812
 H    -1.36233     1.55283     1.49099
 H    -0.19717     0.38879     2.51078
 S    -0.47298     0.58885     1.21333
