    9
 
 C    -2.15572     0.00000    -2.10000
 I     0.00000     0.00000    -2.10000
 H    -2.47912     1.03349    -2.10000
 H    -2.47994    -0.51586    -2.99503
 H    -2.47988    -0.51635    -1.20631
 N     0.00000     0.00000     1.32361
 H     0.91245     0.23250     1.69680
 H    -0.25450    -0.90561     1.69651
 H    -0.65687     0.67311     1.69606
