   14
 
 C    -2.15572     0.00000    -2.10000
 I     0.00000     0.00000    -2.10000
 H    -2.47912     1.03349    -2.10000
 H    -2.47994    -0.51586    -2.99503
 H    -2.47988    -0.51635    -1.20631
 C    -0.24840    -1.06458     1.77834
 C    -0.16185    -0.69756     3.07916
 C     0.16403     0.69771     3.07913
 C     0.24834     1.06432     1.77815
 H     0.46558     1.99344     1.28377
 H     0.31341     1.33320     3.93379
 H    -0.46590    -1.99283     1.28379
 H    -0.30987    -1.33370     3.93339
 O     0.00000     0.00000     0.96759
