   16
 
 C    -0.17545    -2.00747     1.57781
 C    -0.82945    -2.99347     2.30681
 C    -2.21545    -3.05347     2.24581
 C    -2.88545    -2.12647     1.45881
 C    -2.13845    -1.17947     0.76781
 N    -0.80745    -1.11247     0.81881
 H     0.90655    -1.93347     1.60381
 H    -0.26345    -3.69347     2.90581
 H    -2.76045    -3.80647     2.79881
 H    -3.96345    -2.13347     1.37981
 H    -2.63045    -0.44147     0.14481
 C     0.73345     1.01051    -0.74377
 H     0.18450     0.25420    -0.18710
 H     1.24422     1.67318    -0.04782
 H     1.46464     0.52837    -1.38755
 H     0.04013     1.58826    -1.35115
