   17
 
 C    -1.95909     0.00000    -1.90000
Br     0.00000     0.00000    -1.90000
 H    -2.28753     1.03205    -1.90000
 H    -2.28692    -0.51574    -2.79304
 H    -2.28720    -0.51646    -1.00593
 C     0.00000     0.00000     1.20968
 C     0.69625    -1.20517     1.20968
 C     2.08699    -1.20426     1.20968
 C     2.78135     0.00049     1.20921
 C     2.08595     1.20465     1.20970
 C     0.69459     1.20440     1.21012
 H    -1.08186    -0.00071     1.20997
 H     0.15498    -2.14144     1.20942
 H     2.62745    -2.14114     1.20866
 H     3.86321     0.00120     1.20892
 H     2.62637     2.14193     1.20946
 H     0.15240     2.14031     1.21010
