   10
 
 C    -1.79550     0.00000    -1.78000
Cl     0.00000     0.00000    -1.78000
 H    -2.13568     1.03004    -1.78000
 H    -2.13621    -0.51378    -2.67122
 H    -2.13603    -0.51368    -0.88849
 C     0.00072    -0.00000     1.25634
 H     0.00117    -0.00000     2.34411
 H    -0.82389     0.61102     0.89434
 H     0.94042     0.40780     0.89271
 H    -0.11725    -1.01882     0.89375
