   17
 
 C     2.21120    -0.88324     0.97875
 C     2.70720    -2.03124     1.49875
 C     1.63620    -2.98224     1.45975
 C     0.57720    -2.33424     0.91875
 H    -0.43180    -2.62624     0.69175
 H     1.65920    -4.00524     1.79075
 H     2.62820     0.09076     0.80275
 H     3.70620    -2.18724     1.86475
 O     0.90920    -1.04924     0.61875
 C    -0.94269     1.65798    -2.37964
 C    -2.11658     1.93340     0.11206
 H    -1.69592     2.42394    -2.55228
 H    -2.31600     1.77358     1.16410
 H    -2.73735     2.67334    -0.37869
 H    -1.12974     0.81433    -3.04561
 H     0.04035     2.05642    -2.63726
 P    -0.91787     1.05925    -0.62465
