   14
 
 C     0.00000     0.00000     0.00000
 C     1.55189     0.00000     0.00000
 S     2.29869     1.60945     0.00000
 C     4.08417     1.17134    -0.01896
 C     4.89743     2.45119    -0.01926
 F    -0.49170    -1.21935     0.18621
 F    -0.52079     0.42651    -1.14587
 F    -0.54693     0.75125     0.94955
 O     2.13211    -1.04405    -0.00671
 H     4.30974     0.55226    -0.91019
 H     4.32640     0.54183     0.86049
 H     5.97463     2.22230    -0.03385
 H     4.72566     3.06825     0.87421
 H     4.70464     3.08125    -0.89925
