   17
 
 H     0.00000     0.00000     0.00000
 N     1.83380     0.00000     0.00000
 O    -0.69011     0.72435     0.00000
 C     1.17376     2.27421    -0.00072
 C    -0.19869     1.97122    -0.00039
 C    -1.17637     2.98456    -0.00045
 C    -0.76808     4.30543    -0.00081
 C     0.59683     4.63006    -0.00113
 C     1.55190     3.62645    -0.00109
 C     2.20325     1.24292    -0.00074
 O     2.90368    -0.87518    -0.00066
 H    -2.22739     2.70565    -0.00020
 H    -1.50959     5.10508    -0.00086
 H     0.90005     5.67365    -0.00141
 H     2.61145     3.88581    -0.00135
 H     3.25227     1.57361    -0.00129
 H     2.45837    -1.77644     0.00397
