   16
 
 C     0.00000     0.00000     0.00000
 C     1.52473     0.00000     0.00000
 O     1.89638     1.39795     0.00000
 N     2.62954     1.72019     1.11780
 O     2.93944     2.85646     1.13092
 H    -0.40096     0.58449    -0.83821
 H    -0.39686    -1.01756    -0.08409
 C     2.13302    -0.56455    -1.29148
 H    -0.39769     0.44351     0.92100
 H     3.17375    -0.19689    -1.39883
 H     1.59375    -0.17007    -2.17359
 C     2.10998    -2.08958    -1.28372
 H     1.93370    -0.51436     0.89730
 H     2.69229    -2.50081    -0.45081
 H     1.08911    -2.47995    -1.20122
 H     2.53757    -2.49419    -2.20946
