   27
 
 C     0.17824    -0.11064    -0.13313
 C    -0.01954     0.83581    -1.32014
 C    -1.50813     0.85188    -1.71924
 O    -1.50189     1.42678    -3.01546
 C    -2.75343     1.55717    -3.67182
 C    -3.38684     0.18342    -3.92168
 C    -3.69911     2.46729    -2.88008
 C    -2.33418     2.21653    -4.99670
 C     0.44963     2.25092    -0.97520
 H    -0.43048     0.18836     0.72694
 H    -3.76154    -0.26863    -2.99913
 H     1.22467    -0.11574     0.19345
 H     0.56894     0.46419    -2.19574
 H    -1.92752    -0.16656    -1.76520
 H    -2.11107     1.47008    -1.03511
 H    -2.65242    -0.50625    -4.35404
 H    -0.08825    -1.14106    -0.39131
 H    -4.22798     0.25790    -4.61794
 H    -4.08327     1.97533    -1.98215
 H    -3.17978     3.37937    -2.56226
 H    -4.55967     2.76572    -3.48653
 H    -1.83833     3.17671    -4.81192
 H    -1.61559     1.58436    -5.53253
 H    -3.19463     2.38929    -5.64608
 H     0.26152     2.93205    -1.81626
 H    -0.07631     2.65179    -0.10296
 H     1.52255     2.27638    -0.76061
