   14
 
 H    -0.02471     0.09879     0.30439
 N     0.93649     0.02039    -0.00603
 C     1.57117     1.34911    -0.03851
 C     3.06568     1.15024    -0.18716
 O     3.78151     0.41625     0.43790
 C     1.30781     2.18140     1.24217
 O    -0.08217     2.22221     1.46589
 H     1.42240    -0.61687     0.61342
 H     1.72328     3.19992     1.17412
 H    -0.52766     2.78895     0.80232
 H     1.69648     1.68327     2.15255
 H     1.16091     1.89206    -0.93649
 O     3.55283     1.97323    -1.14623
 H     4.52518     1.86937    -1.30515
