   16
 
 C     0.00000     0.00000     0.00000
 C     2.80291     0.00000     0.00000
 C     0.69972     1.20535     0.00000
 C     0.69972    -1.20535    -0.00000
 C     2.09179     1.20645     0.00000
 C     2.09179    -1.20645     0.00000
 H    -1.08757     0.00000     0.00000
 H     0.15687     2.14867    -0.00000
 H     0.15687    -2.14867    -0.00000
 H     2.62854     2.15347     0.00000
 H     2.62854    -2.15347     0.00000
 C     4.26488    -0.04256    -0.00017
 C     5.06559     1.02701     0.01244
 H     4.69414    -1.04994    -0.01130
 H     6.14285     0.95581     0.01200
 H     4.71835     2.04795     0.02438
