   18
 
 C    -0.00173    -0.00477    -0.02089
 C     0.24311     1.50808    -0.05837
 C    -1.50018    -0.32297    -0.05595
 C     0.74001    -0.70860    -1.16944
 O     0.61965    -0.59506     1.11396
 C     0.16481    -0.17930     2.38247
 H    -0.30933     2.03330     0.72616
 H     1.30736     1.73081     0.08160
 H    -0.06672     1.93156    -1.01897
 H    -1.67397    -1.38660     0.14732
 H    -2.05964     0.25201     0.68810
 H    -1.92760    -0.09532    -1.03711
 H     1.81832    -0.51717    -1.10973
 H     0.60603    -1.79545    -1.11023
 H     0.38308    -0.36825    -2.14381
 H     0.33311     0.89004     2.53604
 H    -0.88801    -0.43469     2.53083
 H     0.79689    -0.76289     3.06543
