   12
 
 C    -0.02823     0.07333    -0.00689
 C     1.49143     0.09487     0.02655
 C     2.00987     1.52791    -0.00885
 O    -0.51728     0.43644     1.19972
 O    -0.73077    -0.22768    -0.92968
 O     2.00471    -0.62202    -1.05286
 O     2.67222     2.09522     0.81042
 O     1.62278     2.10995    -1.16818
 H     1.89577    -0.44187     0.92873
 H    -1.50838     0.43029     1.25050
 H     1.59124    -0.32278    -1.90807
 H     1.96414     3.03300    -1.29146
