   19
 
 C     0.00000     0.00000     0.00000
 C     1.53705     0.00000     0.00000
 O     1.99304     1.38054     0.00000
 N     1.64533     2.07492     1.13249
 O     2.04181     3.18483     1.10132
 H    -0.36340     0.68481    -0.79203
 C    -0.58784    -1.39313    -0.20258
 C     2.13743    -0.73699     1.19214
 C     2.13411    -0.48439    -1.32464
 H    -0.37045     0.42851     0.95310
 H     3.21889    -0.56519     1.25994
 H     1.69457    -0.40374     2.13917
 H     1.97690    -1.81771     1.11580
 H     3.21744    -0.30915    -1.35744
 H     1.69550     0.04537    -2.17906
 H     1.96385    -1.55632    -1.46595
 H    -0.27919    -2.08277     0.59126
 H    -1.68438    -1.35955    -0.19404
 H    -0.28551    -1.82851    -1.16158
