   22
 
 N     0.00000     0.00000     0.00000
 C     1.34253     0.00000     0.00000
 C     2.05956     1.22729     0.00000
 N     1.39958     2.39617     0.00085
 C     0.04912     2.39759     0.00136
 C    -0.66500     1.17532     0.00033
 C    -2.15163     1.07118    -0.00142
 C    -0.59243     3.74276     0.00087
 C     2.03010    -1.32070     0.00004
 C     3.54757     1.27775    -0.00138
 H    -2.50738     0.52574     0.88917
 H    -2.50297     0.49538    -0.87476
 H    -2.65556     2.04461    -0.02135
 H    -0.30980     4.31096    -0.90159
 H    -0.24750     4.34200     0.86106
 H    -1.68717     3.70227     0.04270
 H     2.66838    -1.44081    -0.88773
 H     2.66307    -1.44365     0.89124
 H     1.30743    -2.15544    -0.00340
 H     3.96699     0.77731     0.88380
 H     3.96449     0.79061    -0.89514
 H     3.91929     2.31739     0.00574
