   56
 
 C     0.00000     0.00000     0.00000
 C     1.50160     0.00000     0.00000
 C     0.75068     1.30046     0.00000
 C     0.75064     0.43353     1.22596
 C     2.69849    -0.69279    -0.48750
 C     2.87183    -2.01219     0.28721
 C     3.93025     0.20417    -0.26623
 C     2.53604    -0.98976    -1.98969
 C     0.74955     0.43664     2.69235
 C     2.14176     0.85482     3.20006
 C     0.41449    -0.97719     3.20211
 C    -0.30866     1.43493     3.19690
 C     0.75293     2.68178    -0.49216
 C     1.08877     2.68444    -1.99485
 C     1.81128     3.49337     0.27733
 C    -0.63922     3.30139    -0.27030
 C    -1.19728    -0.69057    -0.48978
 C    -1.03400    -2.20607    -0.27184
 C    -2.42775    -0.18444     0.28537
 C    -1.37340    -0.39830    -1.99127
 H     3.72831    -2.58149    -0.08446
 H     1.97975    -2.64145     0.19450
 H     3.02818    -1.82238     1.35480
 H     3.84611     1.13410    -0.83923
 H     4.84979    -0.30125    -0.57423
 H     4.03095     0.47895     0.78959
 H     1.68544    -1.65682    -2.16766
 H     3.43113    -1.46580    -2.39955
 H     2.35245    -0.06886    -2.55411
 H     2.16453     0.91607     4.29165
 H     2.42801     1.83331     2.79882
 H     2.90608     0.13615     2.88459
 H    -0.58897    -1.28099     2.88445
 H     0.45305    -1.02515     4.29393
 H     1.12013    -1.71503     2.80459
 H    -0.37017     1.43055     4.28869
 H    -1.29993     1.18977     2.79989
 H    -0.07076     2.45460     2.87459
 H     1.05445     3.69641    -2.40782
 H     0.38084     2.06448    -2.55593
 H     2.09073     2.27902    -2.17341
 H     1.87514     4.51873    -0.09740
 H     2.80190     3.03493     0.18305
 H     1.57179     3.53685     1.34547
 H    -1.40418     2.76042    -0.83800
 H    -0.66229     4.34872    -0.58398
 H    -0.92449     3.25692     0.78657
 H    -1.93104    -2.75042    -0.57974
 H    -0.84476    -2.43246     0.78332
 H    -0.18677    -2.59593    -0.84661
 H    -2.34090    -0.41528     1.35278
 H    -3.34792    -0.64355    -0.08648
 H    -2.52935     0.90258     0.19339
 H    -2.23261    -0.93554    -2.40227
 H    -0.48372    -0.69775    -2.55621
 H    -1.52705     0.67207    -2.16700
