   18
 
 N     0.62535     0.11450    -0.96720
 C     1.65925    -0.13200     0.11052
 N     2.20758     1.18295     0.52341
 C     3.44873     1.69003    -0.11872
 N     4.67227     1.05350     0.51456
 N     3.40342     3.19065     0.13672
 F    -0.44610     0.72407    -0.36739
 F     0.07907    -1.10981    -1.26134
 F     2.55640    -1.00282    -0.35231
 F     1.14124    -0.75296     1.17503
 F     2.43104     1.11671     1.88811
 N     3.36752     1.40190    -1.60240
 F     5.79788     1.61700    -0.02954
 F     4.80540    -0.22919     0.05226
 F     4.58942     3.72966    -0.29721
 F     3.51881     3.41836     1.48213
 F     4.44760     1.99920    -2.20432
 F     2.35031     2.13787    -2.14969
