   10
 
 C     0.00000     0.00000     0.00000
 C     1.35636     0.00000     0.00000
 C    -0.76535     1.20255     0.00000
 N    -1.39671     2.17099     0.00007
 C     2.12117     1.20290    -0.00008
 N     2.75111     2.17230    -0.00025
 C     2.11947    -1.20407    -0.00013
 N     2.74663    -2.17525    -0.00022
 C    -0.76366    -1.20372     0.00011
 N    -1.39226    -2.17393     0.00017
