   45
 
 C     0.00000     0.00000     0.00000
 C     1.52235     0.00000     0.00000
 C    -0.29756     1.49304     0.00000
 C    -0.61232    -0.74579    -1.17758
 C    -0.61286    -0.74663     1.17662
 C     2.22597     0.05742     1.20563
 C     3.61674     0.12472     1.20475
 C     4.31525     0.15077    -0.00066
 C     3.61653     0.12179    -1.20564
 C     2.22571     0.05435    -1.20583
 C    -0.37632     2.19427    -1.20583
 C    -0.58307     3.57121    -1.20552
 C    -0.69742     4.26150    -0.00048
 C    -0.59097     3.57066     1.20472
 C    -0.38419     2.19366     1.20548
 C    -1.85317    -0.35698    -1.68840
 C    -2.44487    -1.07849    -2.72187
 C    -1.80968    -2.20395    -3.24268
 C    -0.58577    -2.61238    -2.71691
 C     0.00734    -1.89097    -1.68396
 C    -1.85644    -0.36094     1.68340
 C    -2.44965    -1.08394     2.71487
 C    -1.81287    -2.20744     3.23813
 C    -0.58597    -2.61220     2.71672
 C     0.00870    -1.88957     1.68560
 H     1.68773     0.06139     2.15335
 H     4.15681     0.16332     2.14834
 H     5.40090     0.20235    -0.00062
 H     4.15593     0.15839    -2.14971
 H     1.68771     0.05567    -2.15366
 H    -0.26473     1.66741    -2.15339
 H    -0.64893     4.10814    -2.14939
 H    -0.86036     5.33604    -0.00100
 H    -0.66302     4.10688     2.14859
 H    -0.27864     1.66650     2.15357
 H    -2.37002     0.50745    -1.27171
 H    -3.40848    -0.76478    -3.11752
 H    -2.27156    -2.76609    -4.05003
 H    -0.09344    -3.50010    -3.10816
 H     0.95357    -2.23202    -1.26413
 H    -2.37423     0.50181     1.26450
 H    -3.41564    -0.77309     3.10701
 H    -2.27612    -2.77092     4.04380
 H    -0.09220    -3.49831     3.10989
 H     0.95722    -2.22811     1.26900
