   58
 
 C     0.00000     0.00000     0.00000
 C     1.53609     0.00000     0.00000
 C     2.03170     1.46119     0.00000
 C     3.46963     1.68883     0.53239
 C     4.42274     1.20047    -0.45257
 C     3.74918     3.25852     0.68546
 C     2.87555     3.72431     1.75167
 C     3.37322     3.98674    -0.63067
 C     3.78696     5.46975    -0.72646
 C     2.80971     6.38241     0.01865
 C     3.83408     5.87201    -2.20827
 C     2.04697    -0.77253    -1.21878
 C     3.65716     1.01490     1.91497
 C     4.31883    -0.37759     1.88549
 C     5.84260    -0.26278     2.00926
 C     3.77431    -1.22830     3.04059
 C     5.24738     3.46555     1.02030
 C     5.54760     4.59998     2.02111
 C     6.91381     5.21952     1.69686
 C     5.55503     4.07204     3.46042
 N     5.17658     0.84799    -1.25683
 N     2.15308     4.07067     2.58685
 H    -0.40315     0.51650    -0.87742
 H    -0.40246     0.49199     0.89231
 H    -0.39394    -1.02209    -0.01351
 H     1.88333    -0.51781     0.92577
 H     1.94478     1.85631    -1.03135
 H     1.33471     2.06913     0.61476
 H     3.84029     3.43744    -1.47540
 H     2.27949     3.92097    -0.79677
 H     4.80801     5.60601    -0.29662
 H     3.07636     7.43730    -0.11185
 H     1.78241     6.25881    -0.34126
 H     2.80265     6.18756     1.09653
 H     2.86236     5.73535    -2.69438
 H     4.11049     6.92596    -2.32195
 H     4.57133     5.28123    -2.76290
 H     1.75979    -0.28840    -2.15850
 H     3.13844    -0.86585    -1.21991
 H     1.64096    -1.79030    -1.23965
 H     2.66409     0.94866     2.40786
 H     4.24521     1.66764     2.59283
 H     4.07457    -0.89156     0.92342
 H     6.13964     0.21405     2.94902
 H     6.27653     0.31743     1.18724
 H     6.31390    -1.25242     1.98144
 H     2.69375    -1.38513     2.95443
 H     3.96640    -0.75840     4.01157
 H     4.24534    -2.21764     3.05727
 H     5.69453     2.52774     1.40990
 H     5.79580     3.64649     0.07183
 H     4.76928     5.39698     1.93426
 H     7.71530     4.47432     1.74783
 H     6.93114     5.66045     0.69444
 H     7.16289     6.01662     2.40644
 H     4.58752     3.64122     3.74148
 H     6.32076     3.30349     3.60758
 H     5.76088     4.87875     4.17396
