   21
 
 C    -0.00476     0.02323     0.00084
 O     1.25342     0.30901     0.54664
 C     2.31541     0.28322    -0.39594
 O    -0.95781     0.15106     1.01953
 C    -0.91605     1.39684     1.70023
 O    -0.23069     0.91346    -1.05646
 C    -1.43586     0.67303    -1.76864
 O    -0.08314    -1.28084    -0.50564
 C     0.00593    -2.29286     0.48675
 H     2.36075    -0.68641    -0.90284
 H     2.20015     1.09588    -1.12163
 H     3.20004     0.44249     0.23278
 H     0.01182     1.48259     2.27644
 H    -1.01331     2.22800     0.99404
 H    -1.78665     1.33901     2.36495
 H    -2.29692     0.70918    -1.09358
 H    -1.46069     1.50041    -2.48779
 H    -1.38759    -0.29234    -2.28557
 H     0.91239    -2.16827     1.08858
 H    -0.88683    -2.27724     1.12178
 H     0.04825    -3.21319    -0.10813
