   22
 
 C     0.00000     0.00000     0.00000
 C     1.53707     0.00000     0.00000
 C    -0.49997     1.45299     0.00000
 C    -0.56723    -0.79543    -1.23394
 C    -2.10397    -0.79740    -1.23547
 C    -0.06531    -2.24811    -1.23779
 C    -0.10934    -0.14735    -2.45875
 N     0.24729     0.35708    -3.43598
 C    -0.46034    -0.64538     1.22493
 N    -0.81824    -1.14939     2.20196
 H     1.95409    -1.01022     0.08802
 H     1.93748     0.44462    -0.92073
 H     1.93588     0.58471     0.83977
 H    -1.59090     1.51868     0.08911
 H    -0.21082     1.97602    -0.92129
 H    -0.07618     2.02090     0.83916
 H    -2.50456    -1.25525    -0.32137
 H    -2.52273     0.21284    -1.31324
 H    -2.50090    -1.37277    -2.08273
 H    -0.36614    -2.77799    -0.32438
 H     1.02629    -2.31245    -1.31638
 H    -0.47942    -2.81039    -2.08558
