   10
 
 S     0.00000     0.00000     0.00000
 C     2.43702     0.00000     0.00000
 C     1.43909     1.16886     0.00000
 C     1.43917    -1.16876    -0.00049
 H     3.09914     0.00017     0.88074
 H     3.09952     0.00073    -0.88046
 H     1.48169     1.80901    -0.88708
 H     1.48160     1.80954     0.88670
 H     1.48172    -1.80864    -0.88775
 H     1.48164    -1.80992     0.88586
