    8
 
 C     0.00000     0.00000     0.00000
 C     1.48662     0.00000     0.00000
 S     2.25397     1.65128     0.00000
 H     3.54468     1.28186    -0.00150
 O     2.16987    -0.98264    -0.00210
 H    -0.46966     0.99352     0.00398
 H    -0.38522    -0.54376     0.88112
 H    -0.38498    -0.53651    -0.88564
