    8
 
 S     0.00000     0.00000     0.00000
 C     1.68663     0.00000     0.00000
 N     2.40578     1.16615     0.00000
 N     2.40516    -1.16652     0.00000
 H     1.92272     2.04949    -0.00000
 H     3.40128     1.20436     0.00001
 H     1.92174    -2.04965     0.00001
 H     3.40065    -1.20523     0.00000
