    9
 
 S     0.00000     0.00000     0.00000
 C     1.71400     0.00000     0.00000
 C    -0.06580     1.71274     0.00000
 C     2.21611     1.27467     0.00000
 C     1.18362     2.26683     0.00000
 H     2.28899    -0.91043     0.00000
 H    -1.00018     2.24923    -0.00000
 H     3.26371     1.52893    -0.00000
 H     1.39676     3.32369     0.00000
