   17
 
 H     0.14835    -0.20216     0.67720
 N     1.08492    -0.15014     0.30150
 C     1.53844     1.24541     0.21074
 C     3.05001     1.34936     0.11490
 O     3.66106     2.34270    -0.18904
 C     1.09562     2.15111     1.40206
 O     1.39200     1.36289     2.53952
 C    -0.39309     2.47370     1.35589
 H     1.69079    -0.69812     0.90192
 H     1.71061     3.08056     1.44295
 H     1.14350     1.82501     3.36292
 H    -0.68068     2.94072     0.40598
 H    -1.00527     1.57096     1.47922
 H    -0.68100     3.16735     2.15548
 H     1.10871     1.66661    -0.74530
 O     3.69526     0.20405     0.42324
 H     4.68288     0.29239     0.38263
