   15
 
 C    -0.00185    -0.00156     0.00009
 C     2.79221    -0.00895    -0.00133
 C     0.70038     1.20234     0.04074
 C     0.69379    -1.20792    -0.04183
 C     2.09230     1.20056     0.04065
 C     2.08752    -1.21384    -0.04200
 H    -1.08875     0.00154     0.00027
 H     0.15912     2.14600     0.07352
 H     0.14853    -2.14917    -0.07366
 H     2.63672     2.14097     0.07248
 H     2.62324    -2.15915    -0.07476
 C     4.28372     0.00059    -0.00168
 H     4.67958     0.49289     0.89899
 H     4.71607    -1.00769    -0.03276
 H     4.67835     0.54712    -0.87084
