   16
 
 C     0.00000     0.00000     0.00000
 C     2.79248     0.00000     0.00000
 C     0.69830     1.20633     0.00000
 C     0.69823    -1.20637     0.00050
 C     2.09100     1.20879     0.00045
 C     2.09099    -1.20865     0.00016
 H    -1.08789    -0.00033    -0.00124
 H     0.15460     2.14926    -0.00226
 H     0.15485    -2.14944    -0.00141
 H     2.63087     2.15396    -0.00566
 H     2.63066    -2.15392    -0.00551
 C     4.28156    -0.00024    -0.00226
 H     4.69740     0.88644     0.51234
 H     4.69695    -0.88553     0.51507
 S     4.78815    -0.00286    -1.77497
 H     6.11780    -0.00334    -1.62187
