    8
 
 C     0.00000     0.00000     0.00000
 C     1.50800     0.00000     0.00000
Cl     2.04531     1.69575     0.00000
Cl    -0.53707    -1.69583     0.00260
 H    -0.44022     0.47334     0.89696
 H    -0.43821     0.47186    -0.89877
 H     1.94810    -0.47203     0.89773
 H     1.94617    -0.47335    -0.89800
