   10
 
 C     0.00000     0.00000     0.00000
 C     1.34400     0.00000     0.00000
 C     2.14084     1.23172     0.00000
 C     3.47707     1.22750    -0.00013
 H     4.07086     2.12909    -0.00014
 H     4.07679     0.33029    -0.00025
 H     1.90933    -0.93445    -0.00002
 H    -0.58993    -0.90389     0.00000
 H    -0.60213     0.89534    -0.00000
 H     1.57528     2.16616     0.00009
