   24
 
 O     0.00000     0.00000     0.00000
 C     1.19910     0.00000     0.00000
 C     2.06645     1.24695     0.00000
 C     3.46682     0.70728     0.31989
 C     2.06522    -1.24790    -0.00056
 C     3.46601    -0.70936    -0.32027
 C     4.66740     1.48447    -0.20831
 C     5.94538     0.73477     0.21580
 C     5.94208    -0.74060    -0.22461
 C     4.66592    -1.48687     0.20915
 H     2.01943     1.74749    -0.98297
 H     1.71188     1.99064     0.73154
 H     3.56485     0.61398     1.42888
 H     1.70957    -1.99168    -0.73109
 H     2.01875    -1.74776     0.98291
 H     3.56475    -0.61501    -1.42889
 H     4.62508     1.58306    -1.30775
 H     4.67803     2.51456     0.18980
 H     6.83213     1.24377    -0.20363
 H     6.05516     0.79028     1.31545
 H     6.04868    -0.79740    -1.32423
 H     6.83140    -1.24989     0.19013
 H     4.67322    -2.51894    -0.18364
 H     4.62838    -1.57880     1.30917
