   34
 
 P     0.00000     0.00000     0.00000
 O     1.60766     0.00000     0.00000
 C     2.62203     0.99697     0.00000
 C     2.75130     1.65981    -1.37228
 O    -0.56598    -0.32661     1.44317
 C    -0.56333     0.15284     2.77599
 C     0.68745    -0.33789     3.50699
 O    -0.29559     1.59868    -0.29783
 C    -1.36397     2.17882    -1.04294
 C    -1.26736     1.89742    -2.54310
 C     2.54460     2.03577     1.11363
 C    -0.76568     1.65530     2.94595
 C    -2.76521     1.89633    -0.50580
 H     3.48288     0.28798     0.18118
 H     3.70192     2.19470    -1.46018
 H     1.94527     2.38185    -1.55536
 H     2.70882     0.91465    -2.17754
 H    -1.47425    -0.40619     3.13634
 H     0.57752    -0.22856     4.58994
 H     1.58665     0.21003     3.20384
 H     0.87396    -1.39918     3.29075
 H    -1.07715     3.25033    -0.83004
 H    -1.87208     2.61077    -3.11253
 H    -1.61979     0.89122    -2.80447
 H    -0.23217     1.97957    -2.89906
 H     3.46864     2.62270     1.16328
 H     2.39803     1.56769     2.09518
 H     1.71963     2.74449     0.95730
 H    -0.92539     1.91110     3.99878
 H    -1.63753     2.00975     2.38196
 H     0.09871     2.23337     2.59698
 H    -3.49243     2.59438    -0.93473
 H    -2.80919     2.00196     0.58567
 H    -3.11268     0.88251    -0.74569
