    8
 
 C     0.00000     0.00000     0.00000
 C     1.51900     0.00000     0.00000
Cl     2.23210     1.59747     0.00000
Cl     2.03981    -0.85976     1.43634
 O    -0.69551    -0.97220     0.00848
 O    -0.44257     1.28707    -0.01275
Cl     2.03758    -0.85882    -1.43789
Cl    -2.11378     1.40794    -0.01558
