   44
 
 C     0.00000     0.00000     0.00000
 C     1.53577     0.00000     0.00000
 C     2.12259     1.41259     0.00000
 C     1.68637     2.27512    -1.19600
 C     0.54929     1.57215    -1.96860
 C    -0.54073     0.99884    -1.05208
 C     0.05288     2.30349     2.82798
 C     1.48281     2.81531     3.12313
 C     1.68257     4.32268     2.93764
 C     1.13999     4.84483     1.58950
 C    -0.36255     4.53246     1.58542
 C    -0.63346     3.03195     1.67002
 C     0.12124     0.76468     2.57221
 C    -0.67683     0.16961     1.39415
 C     1.26224     3.72234    -0.81722
 C     1.99071     4.35353     0.38402
 H     1.91469    -0.56567     0.87190
 H     1.80334     1.91249     0.93769
 H     0.09434     2.27555    -2.68971
 H    -1.07354     1.83402    -0.55930
 H     2.21306     2.28577     2.47660
 H     2.75661     4.56677     3.03183
 H    -0.84125     4.95109     0.68037
 H    -1.72442     2.85806     1.72369
 H    -0.23183     0.26702     3.49821
 H     1.17669     0.45001     2.47473
 H    -0.99491    -0.84680     1.71295
 H    -1.62378     0.72538     1.27057
 H     0.16964     3.74905    -0.66263
 H     1.42435     4.36276    -1.70648
 H     2.56891     5.22376     0.01264
 H     2.76738     3.66058     0.75616
 H    -0.30766    -1.02268    -0.34930
 H     1.89878    -0.55140    -0.88962
 H     3.22491     1.35707     0.03839
 H     2.56071     2.36368    -1.88711
 H     0.98083     0.75551    -2.57856
 H    -1.30784     0.49609    -1.66978
 H    -0.55929     2.47759     3.74533
 H     1.75303     2.53405     4.15866
 H     1.17662     4.86481     3.75984
 H     1.23760     5.96173     1.59959
 H    -0.84083     5.04951     2.44052
 H    -0.28223     2.57070     0.72150
