   26
 
 O     0.00000     0.00000     0.00000
 P     1.45847     0.00000     0.00000
 O     2.24258     1.40107     0.00000
 O     2.24246    -0.69857     1.21432
 O     2.24278    -0.69974    -1.21341
 C     1.93822     2.44723    -0.94882
 C     1.92087    -0.41694     2.59430
 C     1.92881    -2.03862    -1.65601
 H     1.62721     2.11510    -1.95617
 H     2.95771     2.89447    -1.02871
 H     1.58501     0.61257     2.81597
 H     2.93972    -0.55257     3.02930
 H     1.59961    -2.74608    -0.87310
 H     2.94869    -2.34170    -1.99305
 C     0.94364     3.43361    -0.34316
 C     0.94407    -1.46079     3.12838
 C     0.94857    -1.98768    -2.82454
 H    -0.09118     3.07214    -0.41641
 H     1.14846     3.59870     0.72298
 H     0.99408     4.40239    -0.84970
 H     1.17357    -2.45832     2.73084
 H     0.98681    -1.51564     4.22053
 H    -0.09347    -1.23606     2.84572
 H    -0.08867    -1.85879    -2.48625
 H     1.17239    -1.14587    -3.49316
 H     0.99386    -2.90791    -3.41507
