   20
 
 N     0.00000     0.00000     0.00000
 C     1.48758     0.00000     0.00000
 C     2.03172     1.46013     0.00000
 N     0.90669     2.43317    -0.00014
 C     0.07255     2.19002    -1.20747
 C    -0.47163     0.72986    -1.20728
 C    -0.47236     0.72968     1.20724
 C     0.07203     2.18961     1.20665
 H     1.83934    -0.56082    -0.88735
 H     2.66460     1.65386     0.88747
 H     2.66442     1.65375    -0.88765
 H    -0.75319     2.92738    -1.21892
 H     0.68724     2.38965    -2.10629
 H    -0.13903     0.17557    -2.10603
 H    -1.57859     0.71334    -1.21820
 H    -0.13936     0.17564     2.10603
 H     0.68604     2.39076     2.10569
 H    -0.75420     2.92649     1.21741
 H     1.83940    -0.56071     0.88745
 H    -1.57933     0.71203     1.21812
