   32
 
 C    -0.04033     0.10360    -0.17516
 C     1.44531     0.21429     0.11942
 O     1.70290     1.62997     0.04614
 C     2.94230     2.02686     0.40335
 C     2.98660     3.53804     0.32772
 C     2.24808     4.13804     1.50463
 O     1.97386     5.42661     1.21275
 C     1.32323     6.18440     2.25108
 C     1.26796     7.59264     1.68546
 O     3.83441     1.28078     0.69573
 O     1.92000     3.58854     2.51866
 C     4.42097     4.02216     0.30554
 O     5.03824     4.52681     1.20101
 O     4.90562     3.82111    -0.93764
 C     6.29036     4.15899    -1.14273
 C     6.57243     3.66754    -2.55193
 H    -0.63809     0.62858     0.58290
 H    -0.29155     0.55287    -1.14512
 H    -0.36276    -0.94342    -0.19318
 H     1.71312    -0.14455     1.12995
 H     2.07869    -0.28426    -0.63477
 H     2.47681     3.86967    -0.62894
 H     0.32620     5.74346     2.42271
 H     1.92859     6.11185     3.17294
 H     2.27610     7.97931     1.48009
 H     0.71619     7.62353     0.73671
 H     0.77922     8.28041     2.38465
 H     6.39501     5.25200    -1.03172
 H     6.89846     3.64488    -0.37608
 H     6.43454     2.58002    -2.62973
 H     5.89277     4.12743    -3.28191
 H     7.60021     3.89808    -2.85348
