   13
 
 C     0.00000     0.00000     0.00000
 P     1.88145     0.00000     0.00000
 C     2.36941     1.81713     0.00000
 C     2.36889    -0.63697    -1.70229
 H    -0.45552     0.62747    -0.79354
 H    -0.39642    -1.03536    -0.12915
 H    -0.39540     0.36569     0.97805
 H     1.87987     2.42132    -0.79134
 H     2.12043     2.29218     0.97953
 H     3.47174     1.93262    -0.13086
 H     3.47079    -0.55215    -1.85771
 H     2.12285    -1.72147    -1.80286
 H     1.87703    -0.10945    -2.54532
