   13
 
 C    -0.00111    -0.00643     0.00014
 N     1.47762    -0.01163     0.00951
 C     2.00320     1.37039    -0.00255
 H    -0.45569     0.46346    -0.88347
 H    -0.36111    -1.04697     0.06636
 H    -0.36113     0.51904     0.89966
 H     1.63864     1.89981     0.89312
 H     3.10319     1.33321     0.06830
 H     1.73171     1.95865    -0.89045
 C     2.00264    -0.77313    -1.14434
 H     1.72984    -0.36446    -2.12772
 H     3.10259    -0.81056    -1.07516
 H     1.63849    -1.81181    -1.08340
