   23
 
 C    -0.03954    -0.02095     0.14091
 C     1.47100     0.08042     0.13204
 C     1.88605     1.53435     0.05632
 C     2.04380    -0.55746     1.38011
 O     1.46518    -0.82853     2.39322
 O    -0.82938     0.84605     0.38394
 O     2.32831     2.21634     0.93598
 O     3.35478    -0.81246     1.15488
 C     4.07396    -1.36893     2.25456
 O     1.69853     1.95462    -1.21743
 C     1.97653     3.33354    -1.45745
 O    -0.37697    -1.28445    -0.21175
 C    -1.77371    -1.57610    -0.18831
 H     1.87164    -0.46459    -0.77705
 H     5.09066    -1.46429     1.85469
 H     3.65454    -2.34370     2.52452
 H     4.04556    -0.68445     3.10974
 H     1.72342     3.44904    -2.51796
 H     3.03487     3.54244    -1.26945
 H     1.33873     3.96223    -0.82545
 H    -1.80644    -2.62689    -0.49875
 H    -2.30912    -0.93168    -0.89372
 H    -2.16651    -1.44632     0.82662
