   17
 
 N     0.00000     0.00000     0.00000
 C     1.32962     0.00000     0.00000
 C     2.15561     1.22207     0.00000
 C     1.80873    -1.37627     0.00017
 C     3.21712    -1.79361    -0.00054
 C     0.66592    -2.13590     0.00030
 C     0.35994    -3.56740     0.00069
 O    -0.44152    -1.30245     0.00000
 H     2.81059     1.26103     0.88507
 H     2.80122     1.26694    -0.89169
 H     1.54050     2.13812     0.00620
 H     3.74779    -1.42131    -0.89206
 H     3.75387    -1.40537     0.88043
 H     3.33026    -2.88749     0.00884
 H    -0.23347    -3.85812     0.88560
 H    -0.22749    -3.85987    -0.88753
 H     1.27401    -4.18282     0.00485
