   76
 
 N     0.00000     0.00000     0.00000
 C     1.48332     0.00000     0.00000
 C     1.96705     1.46383     0.00000
 C     3.49492     1.52043    -0.08207
 C     3.97827     2.97659    -0.08468
 C     5.50861     3.04006    -0.16622
 C     5.99144     4.49585    -0.17047
 C     7.52251     4.56184    -0.24852
 C     8.00615     6.01214    -0.25428
 C    -0.54530     0.14766     1.37138
 C    -1.92677     0.82476     1.27609
 C    -2.49597     1.07462     2.67540
 C    -3.87832     1.73371     2.58154
 C    -4.45191     1.99385     3.98006
 C    -5.83862     2.64227     3.88491
 C    -6.41320     2.90810     5.28270
 C    -7.79833     3.54847     5.18988
 C    -0.54480    -1.20072    -0.67904
 C    -0.56079    -0.93436    -2.19739
 C    -1.18210    -2.12054    -2.93978
 C    -1.19952    -1.85779    -4.45132
 C    -1.81629    -3.04521    -5.20104
 C    -1.83411    -2.78244    -6.71203
 C    -2.44514    -3.97191    -7.46456
 C    -2.46468    -3.71224    -8.97104
 H     1.85545    -0.50534    -0.91757
 H     1.91430    -0.55256     0.85995
 H     1.60541     1.98863     0.90245
 H     1.50679     1.99924    -0.85327
 H     3.84674     1.00485    -0.99528
 H     3.94354     0.97470     0.76874
 H     3.62517     3.49464     0.82642
 H     3.53016     3.52174    -0.93656
 H     5.86126     2.52173    -1.07721
 H     5.95640     2.49507     0.68545
 H     5.63703     5.01611     0.73869
 H     5.54623     5.04077    -1.02358
 H     7.87758     4.04154    -1.15798
 H     7.96859     4.01799     0.60537
 H     9.09894     6.06658    -0.30687
 H     7.69300     6.54202     0.65219
 H     7.60704     6.56343    -1.11295
 H     0.13439     0.79275     1.97025
 H    -0.62097    -0.81826     1.91147
 H    -2.61967     0.20481     0.67927
 H    -1.82858     1.77498     0.71559
 H    -1.80959     1.71852     3.25668
 H    -2.56836     0.12289     3.23388
 H    -4.56652     1.08920     2.00348
 H    -3.80683     2.68305     2.01824
 H    -3.76784     2.64531     4.55509
 H    -4.51542     1.04590     4.54597
 H    -6.52420     1.98978     3.31302
 H    -5.77700     3.58848     3.31587
 H    -5.73042     3.56526     5.85362
 H    -6.47162     1.96238     5.85375
 H    -8.21316     3.74466     6.18454
 H    -8.50457     2.89929     4.66054
 H    -7.76257     4.50322     4.65351
 H    -1.58518    -1.38302    -0.33167
 H     0.02869    -2.12253    -0.45121
 H     0.46242    -0.73743    -2.56474
 H    -1.12705    -0.00397    -2.39786
 H    -2.21131    -2.30068    -2.57668
 H    -0.61578    -3.04548    -2.72350
 H    -0.17191    -1.67182    -4.81547
 H    -1.76977    -0.93497    -4.66780
 H    -2.84397    -3.23071    -4.83712
 H    -1.24650    -3.96778    -4.98394
 H    -0.80756    -2.59229    -7.07657
 H    -2.40779    -1.86263    -6.93057
 H    -3.47241    -4.16236    -7.10070
 H    -1.87120    -4.89237    -7.24717
 H    -2.89638    -4.55948    -9.51480
 H    -1.45423    -3.54995    -9.36238
 H    -3.05969    -2.82555    -9.21649
