   14
 
 C     0.00000     0.00000     0.00000
 C     2.50788     0.00000     0.00000
 C     2.81729     1.35631     0.00000
 C     1.25403    -0.60264     0.00003
 C    -0.30915     1.35606    -0.00020
 C     0.55874     2.44332    -0.00034
 C     1.94980     2.44391    -0.00013
 H     2.43357     3.44732    -0.00009
 H     3.37814    -0.69486     0.00001
 H     1.25342    -1.71658     0.00012
 H     0.07545     3.44688    -0.00062
 H    -0.87000    -0.69507     0.00007
 H    -1.39504     1.60430    -0.00027
 H     3.90317     1.60449     0.00008
