   15
 
 C    -0.02572    -0.02305     0.03431
 C     1.43090    -0.08749     0.38161
 C     2.33386     0.91076     0.29794
 C     2.03497     2.26884    -0.06462
 C     0.85536     2.90923     0.07901
 C    -0.36478     2.37438     0.63426
 C    -0.76081     1.09090     0.63672
 O    -0.53625    -0.85753    -0.66826
 O     1.74176    -1.34019     0.77805
 H     3.38803     0.70260     0.49870
 H     2.89200     2.82899    -0.46435
 H     0.79223     3.96393    -0.21396
 H    -1.02985     3.13296     1.07466
 H    -1.72386     0.79602     1.06480
 H     2.70026    -1.43656     1.01781
