   19
 
 H     0.00000     0.00000     0.00000
 N     1.00775     0.00000     0.00000
 C     1.56456     1.35789     0.00000
 C     1.09633     2.18963    -1.18947
 O     0.84976     3.36314    -1.23856
 C     3.11940     1.29959    -0.01418
 C     3.70826     2.70766    -0.11932
 C     3.61226     0.61994     1.26607
 H     1.33794    -0.54977    -0.77979
 H     3.44585     0.69632    -0.89628
 H     4.79983     2.68486    -0.01785
 H     3.48532     3.18149    -1.08286
 H     3.32290     3.37165     0.66379
 H     4.69240     0.44652     1.23407
 H     3.39625     1.22161     2.15533
 H     3.12213    -0.35414     1.41007
 H     1.22029     1.87542     0.93983
 O     0.94783     1.40317    -2.28874
 H     0.64358     1.88962    -3.09305
