   23
 
 C     0.00000     0.00000     0.00000
 C     1.47025     0.00000     0.00000
 C     2.17147     1.20561     0.00000
 O     1.56933     2.43467    -0.00024
 C     0.20123     2.47567    -0.00059
 C    -0.60685     1.33890    -0.00054
 C    -1.99661     1.50459    -0.00088
 C     2.19469    -1.19748     0.00038
 C     3.57052     1.25650    -0.00020
 C    -0.33039     3.77077    -0.00110
 C     3.58326    -1.16884     0.00081
 C     4.26522     0.05467    -0.00071
 C    -2.54439     2.78088    -0.00133
 C    -1.71180     3.90728    -0.00153
 O    -0.65483    -1.01741     0.00032
 H    -2.63535     0.61565    -0.00079
 H     1.64868    -2.14613     0.00053
 H     4.08304     2.21507    -0.00014
 H     0.33118     4.63330    -0.00116
 H     4.14729    -2.09907     0.00109
 H     5.35627     0.06210    -0.00084
 H    -3.62451     2.91015    -0.00159
 H    -2.15565     4.90395    -0.00192
