92

C	-0.1449	3.2746	-0.631436
C	-1.3036	3.0577	-1.37825
C	-2.4840	2.8560	-0.662719
C	-2.4971	2.8254	0.742861
C	-1.3299	2.9932	1.48821
C	-0.1576	3.2420	0.773281
C	-3.9284	2.6176	-1.11889
C	-4.2388	1.1744	-0.715352
C	-4.2531	1.1450	0.691799
C	-3.9502	2.5697	1.1612
C	-4.3460	0.0095	-1.47349
C	-4.4538	-1.187	-0.765819
C	-4.4697	-1.215	0.640016
C	-4.3769	-0.049	1.39878
C	-4.6724	3.3657	0.0303719
C	1.26489	3.7006	-1.04697
C	1.24482	3.6463	1.23325
C	2.24451	2.5801	0.778594
C	2.257	2.6139	-0.626396
C	3.12901	1.7754	1.49771
C	4.05802	1.0433	0.757238
C	4.07082	1.0775	-0.64736
C	3.15463	1.8448	-1.36784
C	1.54104	4.7103	0.120381
C	5.22806	0.1809	-1.09861
C	4.84793	-1.246	-0.699523
C	4.83431	-1.280	0.708639
C	5.20675	0.1246	1.18491
C	4.52451	-2.370	-1.44445
C	4.18092	-3.545	-0.755677
C	4.16686	-3.580	0.638494
C	4.49645	-2.439	1.39085
C	6.22996	0.4900	0.0608932
C	-4.4015	-2.689	1.04828
C	-2.9982	-3.129	0.618693
C	-2.9815	-3.100	-0.788426
C	-4.3747	-2.642	-1.23262
C	-1.8517	-3.428	1.33767
C	-0.6746	-3.720	0.626964
C	-0.6580	-3.691	-0.765613
C	-1.8179	-3.370	-1.49153
C	-5.2265	-3.318	-0.115468
H	-1.2980	3.0913	-2.46507
H	-1.3442	2.9779	2.57538
H	-4.1594	2.8931	-2.14792
H	-4.2005	2.8022	2.1963
H	-4.2957	0.0301	-2.55915
H	-4.3492	-0.074	2.48512
H	-4.4478	4.4363	0.0549279
H	-5.7529	3.1922	0.0164584
H	1.36833	4.0675	-2.06893
H	1.33051	3.9638	2.2732
H	3.13294	1.7597	2.58483
H	3.17794	1.8821	-2.45417
H	0.83509	5.5466	0.134188
H	2.57567	5.0672	0.137959
H	5.56942	0.3185	-2.12451
H	5.52905	0.2109	2.22249
H	4.52617	-2.345	-2.53073
H	3.92765	-4.440	-1.31757
H	3.90277	-4.501	1.15055
H	4.47687	-2.468	2.4769
H	6.53274	1.5409	0.089745
H	7.10296	-0.170	0.0526853
H	-4.6916	-2.925	2.0723
H	-4.6403	-2.836	-2.27203
H	-1.8551	-3.439	2.42479
H	0.23548	-3.963	1.16865
H	0.26499	-3.911	-1.29482
H	-1.7952	-3.336	-2.57795
H	-6.2684	-2.984	-0.120913
H	-5.1650	-4.410	-0.137194
C	0.23932	-0.447	-1.41576
C	1.41735	-0.814	-0.680886
C	1.40269	-0.843	0.674308
C	0.20881	-0.510	1.39942
C	-0.9859	-0.208	0.663197
C	-0.9710	-0.177	-0.692576
C	0.27083	-0.358	-2.80775
C	1.46796	-0.590	-3.53404
N	2.46488	-0.775	-4.10748
C	-0.8881	-0.0097	-3.54869
N	-1.8514	0.2799	-4.1359
C	0.21080	-0.484	2.79433
C	1.39286	-0.750	3.53383
N	2.37848	-0.961	4.11745
C	-0.9644	-0.172	3.52592
N	-1.9409	0.0877	4.10509
H	2.31862	-1.076	-1.2197
H	2.29228	-1.129	1.2204
H	-1.9012	0.0021	1.20006
H	-1.8745	0.0569	-1.23939
