86

C	-0.1457	3.4391	-0.495408
C	-1.3084	3.2024	-1.2295
C	-2.4754	2.9622	-0.50312
C	-2.4704	2.9307	0.903031
C	-1.3059	3.1406	1.637
C	-0.1512	3.4196	0.909829
C	-3.9079	2.6171	-0.937084
C	-4.1096	1.1538	-0.527369
C	-4.0857	1.1262	0.879612
C	-3.8917	2.5718	1.34082
C	-4.1841	-0.019	-1.27599
C	-4.2182	-1.219	-0.566445
C	-4.1782	-1.244	0.839114
C	-4.1081	-0.072	1.58963
C	-4.6903	3.3071	0.221836
C	1.27925	3.8128	-0.918409
C	1.25586	3.7999	1.36162
C	2.20421	2.6827	0.930445
C	2.23066	2.6927	-0.475295
C	3.01904	1.8343	1.67564
C	3.91692	1.0457	0.960418
C	3.96355	1.0647	-0.443986
C	3.09915	1.8674	-1.19075
C	1.59083	4.8301	0.231016
C	5.11316	0.1317	-0.852427
C	4.70388	-1.284	-0.447968
C	4.63391	-1.297	0.959109
C	5.02622	0.1023	1.42787
C	4.40597	-2.421	-1.18216
C	4.00592	-3.578	-0.492002
C	3.91297	-3.581	0.899391
C	4.23132	-2.433	1.64357
C	6.08987	0.4333	0.330922
C	-4.1306	-2.717	1.24962
C	-2.7691	-3.225	0.768136
C	-2.8061	-3.200	-0.638121
C	-4.1913	-2.677	-1.03025
C	-1.6238	-3.610	1.44567
C	-0.5047	-3.996	0.690932
C	-0.5408	-3.972	-0.702365
C	-1.6969	-3.562	-1.38545
C	-5.0272	-3.318	0.121876
H	-1.3075	3.2223	-2.31702
H	-1.3023	3.1118	2.72383
H	-4.1784	2.8752	-1.9617
H	-4.1459	2.7871	2.3792
H	-4.2005	-0.0039	-2.36369
H	-4.0558	-0.093	2.67545
H	-4.5472	4.3916	0.242912
H	-5.7545	3.0519	0.223442
H	1.39721	4.1575	-1.94647
H	1.35128	4.1305	2.39659
H	2.99186	1.8264	2.76232
H	3.1362	1.8864	-2.27752
H	0.91603	5.6921	0.228984
H	2.63763	5.1498	0.243763
H	5.49103	0.2524	-1.86835
H	5.32398	0.1939	2.47286
H	4.47881	-2.428	-2.26722
H	3.766	-4.479	-1.04863
H	3.59691	-4.484	1.41451
H	4.15784	-2.442	2.72771
H	6.41206	1.4784	0.357673
H	6.94975	-0.243	0.353696
H	-4.3914	-2.939	2.28485
H	-4.5064	-2.865	-2.05732
H	-1.5808	-3.610	2.53133
H	0.40620	-4.299	1.19888
H	0.34149	-4.261	-1.26616
H	-1.7124	-3.533	-2.47196
H	-6.0556	-2.945	0.155464
H	-5.0069	-4.412	0.102004
C	0.24008	-0.540	-2.34574
C	1.33112	-1.080	-1.64822
C	1.32309	-1.107	-0.264197
C	0.22331	-0.588	0.435845
C	-0.8762	-0.065	-0.258267
C	-0.8647	-0.039	-1.64291
C	0.25199	-0.503	-3.77293
C	0.22012	-0.595	1.86401
H	2.1797	-1.475	-2.19231
H	2.16002	-1.528	0.277747
H	-1.7271	0.3237	0.286115
H	-1.7091	0.3683	-2.18252
N	0.26030	-0.469	-4.93566
N	0.21928	-0.595	3.02657
