126

O	0.97308	4.0295	0.0217296
O	5.22818	4.2984	0.552131
O	5.45578	2.8871	-1.50102
H	5.65508	3.4284	-0.659152
O	1.63082	1.3976	-3.81621
H	0.64178	1.2879	-3.63132
O	-0.8542	1.1328	-3.02372
O	-3.6348	3.0180	0.378441
O	0.94203	-4.124	-0.0116495
O	5.22756	-4.123	-0.19236
O	5.19975	-2.759	1.90677
H	5.49911	-3.287	1.08741
O	1.10372	-1.431	3.83101
H	0.13381	-1.373	3.54797
O	-1.3134	-1.311	2.81292
O	-3.6548	-3.372	-0.810563
N	-4.5523	1.0944	-0.996959
H	-4.5406	1.9082	-0.330856
N	-4.7665	-1.442	0.391443
H	-4.6521	-2.265	-0.254394
C	1.94344	3.4305	-0.804164
C	3.32617	3.5426	-0.603063
C	4.12217	2.8675	-1.60098
C	3.56742	2.1674	-2.68707
C	2.17005	2.0892	-2.79643
C	1.35713	2.7241	-1.83511
C	-0.1261	3.0272	-1.80688
C	-1.1276	1.9076	-2.0783
C	-2.3550	1.9171	-1.32846
C	-2.5431	2.9030	-0.243904
C	-1.4041	3.6778	0.239836
H	-1.5088	4.1677	1.20107
C	-0.2512	3.6202	-0.443298
C	3.98051	4.2905	0.464254
C	3.18432	5.0819	1.47209
H	3.87937	5.5419	2.17506
H	2.48025	4.4397	2.00742
H	2.58977	5.8533	0.971677
C	4.46758	1.5272	-3.70897
H	5.36536	1.1223	-3.23581
H	4.80242	2.2657	-4.44793
H	3.93826	0.7368	-4.24433
C	-0.4528	4.1330	-2.87362
H	-1.4993	4.4391	-2.78952
H	-0.2672	3.7257	-3.87041
H	0.19468	4.9977	-2.70998
C	-3.3827	0.9582	-1.6168
C	-3.1645	-0.178	-2.5683
H	-3.9960	-0.880	-2.56379
H	-2.2495	-0.710	-2.30253
H	-3.0075	0.2052	-3.5802
C	-5.7519	0.2739	-1.07838
H	-5.6680	-0.412	-1.92466
C	-6.9816	1.1720	-1.28347
H	-7.0405	1.8883	-0.452626
H	-6.8451	1.7543	-2.20072
C	-8.2666	0.3382	-1.34828
H	-8.2351	-0.308	-2.23605
H	-9.1297	1.0013	-1.46934
C	1.79603	-3.472	0.893769
C	3.19591	-3.514	0.818723
C	3.86255	-2.794	1.87848
C	3.17612	-2.106	2.89516
C	1.76972	-2.103	2.87705
C	1.08107	-2.794	1.86047
C	-0.3756	-3.184	1.70563
C	-1.4594	-2.122	1.86764
C	-2.6118	-2.209	1.01188
C	-2.6374	-3.198	-0.0865583
C	-1.4155	-3.905	-0.454721
H	-1.3918	-4.383	-1.42651
C	-0.3440	-3.786	0.339794
C	3.97534	-4.195	-0.202651
C	3.31726	-5.002	-1.2946
H	4.09514	-5.379	-1.95885
H	2.60358	-4.397	-1.86056
H	2.75164	-5.836	-0.86495
C	3.94193	-1.409	3.98735
H	4.83366	-0.921	3.58815
H	4.27651	-2.129	4.74422
H	3.30842	-0.672	4.48277
C	-0.7305	-4.298	2.75283
H	-0.6569	-3.875	3.75749
H	-0.0231	-5.125	2.65752
H	-1.7463	-4.665	2.58197
C	-3.6913	-1.281	1.15965
C	-3.6383	-0.144	2.13635
H	-4.5288	0.4793	2.09032
H	-2.7662	0.4789	1.93537
H	-3.5056	-0.529	3.14983
C	-5.9188	-0.573	0.212213
H	-6.0005	0.1135	1.05878
C	-7.1998	-1.415	0.129547
H	-7.2988	-1.999	1.05068
H	-7.1001	-2.132	-0.69707
C	-8.4293	-0.527	-0.0934831
H	-9.3251	-1.152	-0.174142
H	-8.5721	0.1209	0.781548
O	-0.4148	3.0959	4.58012
O	1.71159	3.2807	5.07202
O	5.17352	0.9768	1.70343
O	6.43796	-1.692	-2.69358
O	4.79529	-2.684	-3.75291
O	0.35106	-1.815	-2.70478
O	-0.2745	-0.958	-0.80454
N	0.78198	2.874	4.3704
N	5.24926	-1.958	-2.86449
N	0.59146	-1.252	-1.63733
C	1.72806	0.5604	0.920871
C	0.39800	0.8490	1.22788
H	-0.4103	0.4994	0.608632
C	0.10805	1.6042	2.36542
H	-0.9154	1.8341	2.63126
C	1.13089	2.0693	3.18201
C	2.47301	1.8149	2.90469
H	3.26551	2.1881	3.54273
C	2.74258	1.0713	1.77249
C	4.07958	0.7010	1.2457
C	3.79632	-0.088	0.0118077
C	4.74915	-0.641	-0.821258
H	5.80780	-0.526	-0.621525
C	4.28245	-1.348	-1.92535
C	2.93076	-1.500	-2.17639
H	2.59320	-2.051	-3.04377
C	1.99209	-0.945	-1.30327
C	2.39300	-0.197	-0.181042
